* NGSPICE file created from bias_generator.ext - technology: sky130A

.subckt sky130_fd_pr__nfet_g5v0d10v5_C3WBNQ a_n296_n522# a_n158_n300# a_n100_n388#
+ a_100_n300#
X0 a_100_n300# a_n100_n388# a_n158_n300# a_n296_n522# sky130_fd_pr__nfet_g5v0d10v5 ad=0.87 pd=6.58 as=0.87 ps=6.58 w=3 l=1
.ends

.subckt sky130_fd_pr__diode_pw2nd_05v5_FT76RK a_n147_n147# a_n45_n45#
X0 a_n147_n147# a_n45_n45# sky130_fd_pr__diode_pw2nd_05v5 perim=1.8e+06 area=2.025e+11
.ends

.subckt sky130_fd_pr__nfet_05v0_nvt_QRKT8P a_n296_n522# a_n158_n300# a_n100_n388#
+ a_100_n300#
X0 a_100_n300# a_n100_n388# a_n158_n300# a_n296_n522# sky130_fd_pr__nfet_05v0_nvt ad=0.87 pd=6.58 as=0.87 ps=6.58 w=3 l=1
.ends

.subckt sky130_fd_pr__nfet_g5v0d10v5_ZMKT8P a_n296_n522# a_n158_n300# a_n100_n388#
+ a_100_n300#
X0 a_100_n300# a_n100_n388# a_n158_n300# a_n296_n522# sky130_fd_pr__nfet_g5v0d10v5 ad=0.87 pd=6.58 as=0.87 ps=6.58 w=3 l=1
.ends

.subckt bias_nstack itail ena nbias avss vcasc
XXM12 avss avss nbias m1_3726_n2502# sky130_fd_pr__nfet_g5v0d10v5_C3WBNQ
Xsky130_fd_pr__diode_pw2nd_05v5_FT76RK_0 avss ena sky130_fd_pr__diode_pw2nd_05v5_FT76RK
XXM6 avss vcasc nbias m1_3726_n2502# sky130_fd_pr__nfet_05v0_nvt_QRKT8P
XXM7 avss vcasc ena itail sky130_fd_pr__nfet_g5v0d10v5_ZMKT8P
.ends

.subckt sky130_fd_pr__res_high_po_0p35_P35QVK a_380_2984# a_5692_n3416# a_n3770_2984#
+ a_3866_2984# a_3202_n3416# a_n1446_n3416# a_n284_n3416# a_n616_2984# a_4696_n3416#
+ a_4198_2984# a_2206_n3416# a_n1114_2984# a_n4102_2984# a_n616_n3416# a_6190_n3416#
+ a_n6592_2984# a_2372_2984# a_n5762_n3416# a_5360_2984# a_214_2984# a_n3604_2984#
+ a_1210_n3416# a_5194_n3416# a_6522_n3416# a_n4766_n3416# a_1874_2984# a_4862_2984#
+ a_4198_n3416# a_5526_n3416# a_5194_2984# a_n6260_n3416# a_878_n3416# a_n3438_2984#
+ a_n2110_2984# a_n6426_2984# a_2206_2984# a_n118_n3416# a_n3770_n3416# a_4696_2984#
+ a_n5264_n3416# a_48_2984# a_4530_n3416# a_n2774_n3416# a_n1612_2984# a_n4600_2984#
+ a_n5928_2984# a_1708_2984# a_6024_n3416# a_n4268_n3416# a_2870_2984# a_3534_n3416#
+ a_712_2984# a_n1778_n3416# a_5028_2984# a_5028_n3416# a_n948_2984# a_2538_n3416#
+ a_6190_2984# a_n1446_2984# a_n3272_n3416# a_n4434_2984# a_n4600_n3416# a_3202_2984#
+ a_n948_n3416# a_5692_2984# a_380_n3416# a_546_2984# a_4032_n3416# a_n2276_n3416#
+ a_n3604_n3416# a_n3936_2984# a_1542_n3416# a_2704_2984# a_3036_n3416# a_712_n3416#
+ a_n2608_n3416# a_n4268_2984# a_3036_2984# a_6024_2984# a_5858_n3416# a_n1280_n3416#
+ a_n6592_n3416# a_n2442_2984# a_n4102_n3416# a_2538_2984# a_n5430_2984# a_2040_n3416#
+ a_5526_2984# a_1210_2984# a_n1612_n3416# a_n5596_n3416# a_4862_n3416# a_n450_n3416#
+ a_n1944_2984# a_n3106_n3416# a_n4932_2984# a_1044_n3416# a_n450_2984# a_3700_2984#
+ a_6356_n3416# a_214_n3416# a_n5928_n3416# a_n6722_n3546# a_3866_n3416# a_n2276_2984#
+ a_n5264_2984# a_1044_2984# a_4032_2984# a_n2110_n3416# a_n6094_n3416# a_n1778_2984#
+ a_n4766_2984# a_5360_n3416# a_n284_2984# a_3534_2984# a_n4932_n3416# a_6522_2984#
+ a_n1114_n3416# a_2870_n3416# a_n5098_n3416# a_n6426_n3416# a_878_2984# a_4364_n3416#
+ a_n5098_2984# a_n3936_n3416# a_n2940_2984# a_1874_n3416# a_3368_n3416# a_n3272_2984#
+ a_3368_2984# a_48_n3416# a_n6260_2984# a_2040_2984# a_6356_2984# a_n5430_n3416#
+ a_n2940_n3416# a_n118_2984# a_n2774_2984# a_n4434_n3416# a_n5762_2984# a_1542_2984#
+ a_2372_n3416# a_4530_2984# a_5858_2984# a_3700_n3416# a_n1944_n3416# a_n3438_n3416#
+ a_n6094_2984# a_n782_n3416# a_1376_n3416# a_n782_2984# a_2704_n3416# a_546_n3416#
+ a_n3106_2984# a_n1280_2984# a_n5596_2984# a_1376_2984# a_1708_n3416# a_4364_2984#
+ a_n2442_n3416# a_n2608_2984#
X0 a_n3936_2984# a_n3936_n3416# a_n6722_n3546# sky130_fd_pr__res_high_po_0p35 l=30
X1 a_n1612_2984# a_n1612_n3416# a_n6722_n3546# sky130_fd_pr__res_high_po_0p35 l=30
X2 a_n6592_2984# a_n6592_n3416# a_n6722_n3546# sky130_fd_pr__res_high_po_0p35 l=30
X3 a_n4434_2984# a_n4434_n3416# a_n6722_n3546# sky130_fd_pr__res_high_po_0p35 l=30
X4 a_48_2984# a_48_n3416# a_n6722_n3546# sky130_fd_pr__res_high_po_0p35 l=30
X5 a_2704_2984# a_2704_n3416# a_n6722_n3546# sky130_fd_pr__res_high_po_0p35 l=30
X6 a_4862_2984# a_4862_n3416# a_n6722_n3546# sky130_fd_pr__res_high_po_0p35 l=30
X7 a_3202_2984# a_3202_n3416# a_n6722_n3546# sky130_fd_pr__res_high_po_0p35 l=30
X8 a_5360_2984# a_5360_n3416# a_n6722_n3546# sky130_fd_pr__res_high_po_0p35 l=30
X9 a_5526_2984# a_5526_n3416# a_n6722_n3546# sky130_fd_pr__res_high_po_0p35 l=30
X10 a_n948_2984# a_n948_n3416# a_n6722_n3546# sky130_fd_pr__res_high_po_0p35 l=30
X11 a_n782_2984# a_n782_n3416# a_n6722_n3546# sky130_fd_pr__res_high_po_0p35 l=30
X12 a_6024_2984# a_6024_n3416# a_n6722_n3546# sky130_fd_pr__res_high_po_0p35 l=30
X13 a_n4932_2984# a_n4932_n3416# a_n6722_n3546# sky130_fd_pr__res_high_po_0p35 l=30
X14 a_1376_2984# a_1376_n3416# a_n6722_n3546# sky130_fd_pr__res_high_po_0p35 l=30
X15 a_878_2984# a_878_n3416# a_n6722_n3546# sky130_fd_pr__res_high_po_0p35 l=30
X16 a_4198_2984# a_4198_n3416# a_n6722_n3546# sky130_fd_pr__res_high_po_0p35 l=30
X17 a_n3770_2984# a_n3770_n3416# a_n6722_n3546# sky130_fd_pr__res_high_po_0p35 l=30
X18 a_n1446_2984# a_n1446_n3416# a_n6722_n3546# sky130_fd_pr__res_high_po_0p35 l=30
X19 a_3700_2984# a_3700_n3416# a_n6722_n3546# sky130_fd_pr__res_high_po_0p35 l=30
X20 a_n4268_2984# a_n4268_n3416# a_n6722_n3546# sky130_fd_pr__res_high_po_0p35 l=30
X21 a_n2110_2984# a_n2110_n3416# a_n6722_n3546# sky130_fd_pr__res_high_po_0p35 l=30
X22 a_1874_2984# a_1874_n3416# a_n6722_n3546# sky130_fd_pr__res_high_po_0p35 l=30
X23 a_6522_2984# a_6522_n3416# a_n6722_n3546# sky130_fd_pr__res_high_po_0p35 l=30
X24 a_2372_2984# a_2372_n3416# a_n6722_n3546# sky130_fd_pr__res_high_po_0p35 l=30
X25 a_2538_2984# a_2538_n3416# a_n6722_n3546# sky130_fd_pr__res_high_po_0p35 l=30
X26 a_4696_2984# a_4696_n3416# a_n6722_n3546# sky130_fd_pr__res_high_po_0p35 l=30
X27 a_3036_2984# a_3036_n3416# a_n6722_n3546# sky130_fd_pr__res_high_po_0p35 l=30
X28 a_5194_2984# a_5194_n3416# a_n6722_n3546# sky130_fd_pr__res_high_po_0p35 l=30
X29 a_n1944_2984# a_n1944_n3416# a_n6722_n3546# sky130_fd_pr__res_high_po_0p35 l=30
X30 a_n4766_2984# a_n4766_n3416# a_n6722_n3546# sky130_fd_pr__res_high_po_0p35 l=30
X31 a_n2608_2984# a_n2608_n3416# a_n6722_n3546# sky130_fd_pr__res_high_po_0p35 l=30
X32 a_n2442_2984# a_n2442_n3416# a_n6722_n3546# sky130_fd_pr__res_high_po_0p35 l=30
X33 a_214_2984# a_214_n3416# a_n6722_n3546# sky130_fd_pr__res_high_po_0p35 l=30
X34 a_n5430_2984# a_n5430_n3416# a_n6722_n3546# sky130_fd_pr__res_high_po_0p35 l=30
X35 a_n5264_2984# a_n5264_n3416# a_n6722_n3546# sky130_fd_pr__res_high_po_0p35 l=30
X36 a_n3106_2984# a_n3106_n3416# a_n6722_n3546# sky130_fd_pr__res_high_po_0p35 l=30
X37 a_2870_2984# a_2870_n3416# a_n6722_n3546# sky130_fd_pr__res_high_po_0p35 l=30
X38 a_n1280_2984# a_n1280_n3416# a_n6722_n3546# sky130_fd_pr__res_high_po_0p35 l=30
X39 a_1210_2984# a_1210_n3416# a_n6722_n3546# sky130_fd_pr__res_high_po_0p35 l=30
X40 a_3534_2984# a_3534_n3416# a_n6722_n3546# sky130_fd_pr__res_high_po_0p35 l=30
X41 a_5692_2984# a_5692_n3416# a_n6722_n3546# sky130_fd_pr__res_high_po_0p35 l=30
X42 a_5858_2984# a_5858_n3416# a_n6722_n3546# sky130_fd_pr__res_high_po_0p35 l=30
X43 a_712_2984# a_712_n3416# a_n6722_n3546# sky130_fd_pr__res_high_po_0p35 l=30
X44 a_4032_2984# a_4032_n3416# a_n6722_n3546# sky130_fd_pr__res_high_po_0p35 l=30
X45 a_6190_2984# a_6190_n3416# a_n6722_n3546# sky130_fd_pr__res_high_po_0p35 l=30
X46 a_6356_2984# a_6356_n3416# a_n6722_n3546# sky130_fd_pr__res_high_po_0p35 l=30
X47 a_n5928_2984# a_n5928_n3416# a_n6722_n3546# sky130_fd_pr__res_high_po_0p35 l=30
X48 a_n5762_2984# a_n5762_n3416# a_n6722_n3546# sky130_fd_pr__res_high_po_0p35 l=30
X49 a_n3604_2984# a_n3604_n3416# a_n6722_n3546# sky130_fd_pr__res_high_po_0p35 l=30
X50 a_n118_2984# a_n118_n3416# a_n6722_n3546# sky130_fd_pr__res_high_po_0p35 l=30
X51 a_n6426_2984# a_n6426_n3416# a_n6722_n3546# sky130_fd_pr__res_high_po_0p35 l=30
X52 a_n4102_2984# a_n4102_n3416# a_n6722_n3546# sky130_fd_pr__res_high_po_0p35 l=30
X53 a_n1778_2984# a_n1778_n3416# a_n6722_n3546# sky130_fd_pr__res_high_po_0p35 l=30
X54 a_4530_2984# a_4530_n3416# a_n6722_n3546# sky130_fd_pr__res_high_po_0p35 l=30
X55 a_n4600_2984# a_n4600_n3416# a_n6722_n3546# sky130_fd_pr__res_high_po_0p35 l=30
X56 a_n2276_2984# a_n2276_n3416# a_n6722_n3546# sky130_fd_pr__res_high_po_0p35 l=30
X57 a_n5098_2984# a_n5098_n3416# a_n6722_n3546# sky130_fd_pr__res_high_po_0p35 l=30
X58 a_n616_2984# a_n616_n3416# a_n6722_n3546# sky130_fd_pr__res_high_po_0p35 l=30
X59 a_1044_2984# a_1044_n3416# a_n6722_n3546# sky130_fd_pr__res_high_po_0p35 l=30
X60 a_3368_2984# a_3368_n3416# a_n6722_n3546# sky130_fd_pr__res_high_po_0p35 l=30
X61 a_546_2984# a_546_n3416# a_n6722_n3546# sky130_fd_pr__res_high_po_0p35 l=30
X62 a_n2940_2984# a_n2940_n3416# a_n6722_n3546# sky130_fd_pr__res_high_po_0p35 l=30
X63 a_n2774_2984# a_n2774_n3416# a_n6722_n3546# sky130_fd_pr__res_high_po_0p35 l=30
X64 a_380_2984# a_380_n3416# a_n6722_n3546# sky130_fd_pr__res_high_po_0p35 l=30
X65 a_n5596_2984# a_n5596_n3416# a_n6722_n3546# sky130_fd_pr__res_high_po_0p35 l=30
X66 a_n3438_2984# a_n3438_n3416# a_n6722_n3546# sky130_fd_pr__res_high_po_0p35 l=30
X67 a_n3272_2984# a_n3272_n3416# a_n6722_n3546# sky130_fd_pr__res_high_po_0p35 l=30
X68 a_n1114_2984# a_n1114_n3416# a_n6722_n3546# sky130_fd_pr__res_high_po_0p35 l=30
X69 a_n6260_2984# a_n6260_n3416# a_n6722_n3546# sky130_fd_pr__res_high_po_0p35 l=30
X70 a_n6094_2984# a_n6094_n3416# a_n6722_n3546# sky130_fd_pr__res_high_po_0p35 l=30
X71 a_1708_2984# a_1708_n3416# a_n6722_n3546# sky130_fd_pr__res_high_po_0p35 l=30
X72 a_1542_2984# a_1542_n3416# a_n6722_n3546# sky130_fd_pr__res_high_po_0p35 l=30
X73 a_2206_2984# a_2206_n3416# a_n6722_n3546# sky130_fd_pr__res_high_po_0p35 l=30
X74 a_3866_2984# a_3866_n3416# a_n6722_n3546# sky130_fd_pr__res_high_po_0p35 l=30
X75 a_2040_2984# a_2040_n3416# a_n6722_n3546# sky130_fd_pr__res_high_po_0p35 l=30
X76 a_4364_2984# a_4364_n3416# a_n6722_n3546# sky130_fd_pr__res_high_po_0p35 l=30
X77 a_5028_2984# a_5028_n3416# a_n6722_n3546# sky130_fd_pr__res_high_po_0p35 l=30
X78 a_n450_2984# a_n450_n3416# a_n6722_n3546# sky130_fd_pr__res_high_po_0p35 l=30
X79 a_n284_2984# a_n284_n3416# a_n6722_n3546# sky130_fd_pr__res_high_po_0p35 l=30
.ends

.subckt sky130_fd_pr__pfet_g5v0d10v5_G8LMTZ a_n158_n300# w_n362_n597# a_n100_n397#
+ a_100_n300#
X0 a_100_n300# a_n100_n397# a_n158_n300# w_n362_n597# sky130_fd_pr__pfet_g5v0d10v5 ad=0.87 pd=6.58 as=0.87 ps=6.58 w=3 l=1
.ends

.subckt sky130_fd_pr__pfet_g5v0d10v5_H75TTW a_n158_n300# w_n362_n597# a_n100_n397#
+ a_100_n300#
X0 a_100_n300# a_n100_n397# a_n158_n300# w_n362_n597# sky130_fd_pr__pfet_g5v0d10v5 ad=0.87 pd=6.58 as=0.87 ps=6.58 w=3 l=1
.ends

.subckt bias_pstack avdd pcasc enb itail vcasc pbias avss
XXM13 m1_2150_n1558# avdd pcasc vcasc sky130_fd_pr__pfet_g5v0d10v5_G8LMTZ
Xsky130_fd_pr__pfet_g5v0d10v5_G8LMTZ_0 itail avdd enb vcasc sky130_fd_pr__pfet_g5v0d10v5_G8LMTZ
Xsky130_fd_pr__diode_pw2nd_05v5_FT76RK_0 avss enb sky130_fd_pr__diode_pw2nd_05v5_FT76RK
Xsky130_fd_pr__pfet_g5v0d10v5_H75TTW_0 m1_2150_n1558# avdd pbias avdd sky130_fd_pr__pfet_g5v0d10v5_H75TTW
.ends

.subckt bias_generator ref_in enb ena avss enb_10000_0 src_10000_0 src_10000_1 enb_10000_1
+ enb_600 src_600 enb_400 src_400 enb_200_0 src_200_0 enb_200_1 src_200_1 enb_200_2
+ src_200_2 enb_100 src_100 enb_50 src_50 ena_5000_0 snk_2000 ena_5000_1 snk_5000_1
+ ena_5000_2 snk_5000_2 snk_3700 ena_3700 ena_test0 snk_test0 snk_test1 ena_test1
+ src_test1 enb_test1 src_test0 enb_test0 avdd snk_5000_0 ena_2000
Xbias_nstack_0[0] snk_test0 ena_test0 bias_nstack_0[9]/nbias avss bias_nstack_0[0]/vcasc
+ bias_nstack
Xbias_nstack_0[1] snk_test0 ena_test0 bias_nstack_0[9]/nbias avss bias_nstack_0[1]/vcasc
+ bias_nstack
Xbias_nstack_0[2] snk_2000 ena_2000 bias_nstack_0[9]/nbias avss bias_nstack_0[2]/vcasc
+ bias_nstack
Xbias_nstack_0[3] snk_2000 ena_2000 bias_nstack_0[9]/nbias avss bias_nstack_0[3]/vcasc
+ bias_nstack
Xbias_nstack_0[4] snk_2000 ena_2000 bias_nstack_0[9]/nbias avss bias_nstack_0[4]/vcasc
+ bias_nstack
Xbias_nstack_0[5] snk_2000 ena_2000 bias_nstack_0[9]/nbias avss bias_nstack_0[5]/vcasc
+ bias_nstack
Xbias_nstack_0[6] snk_2000 ena_2000 bias_nstack_0[9]/nbias avss bias_nstack_0[6]/vcasc
+ bias_nstack
Xbias_nstack_0[7] snk_2000 ena_2000 bias_nstack_0[9]/nbias avss bias_nstack_0[7]/vcasc
+ bias_nstack
Xbias_nstack_0[8] snk_2000 ena_2000 bias_nstack_0[9]/nbias avss bias_nstack_0[8]/vcasc
+ bias_nstack
Xbias_nstack_0[9] snk_2000 ena_2000 bias_nstack_0[9]/nbias avss bias_nstack_0[9]/vcasc
+ bias_nstack
Xbias_nstack_0[10] snk_2000 ena_2000 bias_nstack_0[9]/nbias avss bias_nstack_0[10]/vcasc
+ bias_nstack
Xbias_nstack_0[11] snk_2000 ena_2000 bias_nstack_0[9]/nbias avss bias_nstack_0[11]/vcasc
+ bias_nstack
Xbias_nstack_0[12] snk_2000 ena_2000 bias_nstack_0[9]/nbias avss bias_nstack_0[12]/vcasc
+ bias_nstack
Xbias_nstack_0[13] snk_2000 ena_2000 bias_nstack_0[9]/nbias avss bias_nstack_0[13]/vcasc
+ bias_nstack
Xbias_nstack_0[14] snk_2000 ena_2000 bias_nstack_0[9]/nbias avss bias_nstack_0[14]/vcasc
+ bias_nstack
Xbias_nstack_0[15] snk_2000 ena_2000 bias_nstack_0[9]/nbias avss bias_nstack_0[15]/vcasc
+ bias_nstack
Xbias_nstack_0[16] snk_2000 ena_2000 bias_nstack_0[9]/nbias avss bias_nstack_0[16]/vcasc
+ bias_nstack
Xbias_nstack_0[17] snk_2000 ena_2000 bias_nstack_0[9]/nbias avss bias_nstack_0[17]/vcasc
+ bias_nstack
Xbias_nstack_0[18] snk_2000 ena_2000 bias_nstack_0[9]/nbias avss bias_nstack_0[18]/vcasc
+ bias_nstack
Xbias_nstack_0[19] snk_2000 ena_2000 bias_nstack_0[9]/nbias avss bias_nstack_0[19]/vcasc
+ bias_nstack
Xbias_nstack_0[20] snk_2000 ena_2000 bias_nstack_0[9]/nbias avss bias_nstack_0[20]/vcasc
+ bias_nstack
Xbias_nstack_0[21] snk_2000 ena_2000 bias_nstack_0[9]/nbias avss bias_nstack_0[21]/vcasc
+ bias_nstack
Xbias_nstack_0[22] snk_2000 ena_2000 bias_nstack_0[9]/nbias avss bias_nstack_0[22]/vcasc
+ bias_nstack
Xbias_nstack_0[23] snk_2000 ena_2000 bias_nstack_0[9]/nbias avss bias_nstack_0[23]/vcasc
+ bias_nstack
Xbias_nstack_0[24] snk_2000 ena_2000 bias_nstack_0[9]/nbias avss bias_nstack_0[24]/vcasc
+ bias_nstack
Xbias_nstack_0[25] snk_2000 ena_2000 bias_nstack_0[9]/nbias avss bias_nstack_0[25]/vcasc
+ bias_nstack
Xbias_nstack_0[26] snk_2000 ena_2000 bias_nstack_0[9]/nbias avss bias_nstack_0[26]/vcasc
+ bias_nstack
Xbias_nstack_0[27] snk_2000 ena_2000 bias_nstack_0[9]/nbias avss bias_nstack_0[27]/vcasc
+ bias_nstack
Xbias_nstack_0[28] snk_2000 ena_2000 bias_nstack_0[9]/nbias avss bias_nstack_0[28]/vcasc
+ bias_nstack
Xbias_nstack_0[29] snk_2000 ena_2000 bias_nstack_0[9]/nbias avss bias_nstack_0[29]/vcasc
+ bias_nstack
Xbias_nstack_0[30] snk_2000 ena_2000 bias_nstack_0[9]/nbias avss bias_nstack_0[30]/vcasc
+ bias_nstack
Xbias_nstack_0[31] snk_2000 ena_2000 bias_nstack_0[9]/nbias avss bias_nstack_0[31]/vcasc
+ bias_nstack
Xbias_nstack_0[32] snk_2000 ena_2000 bias_nstack_0[9]/nbias avss bias_nstack_0[32]/vcasc
+ bias_nstack
Xbias_nstack_0[33] snk_2000 ena_2000 bias_nstack_0[9]/nbias avss bias_nstack_0[33]/vcasc
+ bias_nstack
Xbias_nstack_0[34] snk_2000 ena_2000 bias_nstack_0[9]/nbias avss bias_nstack_0[34]/vcasc
+ bias_nstack
Xbias_nstack_0[35] snk_2000 ena_2000 bias_nstack_0[9]/nbias avss bias_nstack_0[35]/vcasc
+ bias_nstack
Xbias_nstack_0[36] snk_2000 ena_2000 bias_nstack_0[9]/nbias avss bias_nstack_0[36]/vcasc
+ bias_nstack
Xbias_nstack_0[37] snk_2000 ena_2000 bias_nstack_0[9]/nbias avss bias_nstack_0[37]/vcasc
+ bias_nstack
Xbias_nstack_0[38] snk_2000 ena_2000 bias_nstack_0[9]/nbias avss bias_nstack_0[38]/vcasc
+ bias_nstack
Xbias_nstack_0[39] snk_2000 ena_2000 bias_nstack_0[9]/nbias avss bias_nstack_0[39]/vcasc
+ bias_nstack
Xbias_nstack_0[40] snk_2000 ena_2000 bias_nstack_0[9]/nbias avss bias_nstack_0[40]/vcasc
+ bias_nstack
Xbias_nstack_0[41] snk_2000 ena_2000 bias_nstack_0[9]/nbias avss bias_nstack_0[41]/vcasc
+ bias_nstack
Xbias_nstack_0[42] bias_nstack_0[61]/itail ena bias_nstack_0[9]/nbias avss bias_nstack_0[9]/nbias
+ bias_nstack
Xbias_nstack_0[43] bias_nstack_0[61]/itail ena bias_nstack_0[9]/nbias avss bias_nstack_0[9]/nbias
+ bias_nstack
Xbias_nstack_0[44] bias_nstack_0[61]/itail ena bias_nstack_0[9]/nbias avss bias_nstack_0[9]/nbias
+ bias_nstack
Xbias_nstack_0[45] bias_nstack_0[61]/itail ena bias_nstack_0[9]/nbias avss bias_nstack_0[9]/nbias
+ bias_nstack
Xbias_nstack_0[46] bias_nstack_0[61]/itail ena bias_nstack_0[9]/nbias avss bias_nstack_0[9]/nbias
+ bias_nstack
Xbias_nstack_0[47] bias_nstack_0[61]/itail ena bias_nstack_0[9]/nbias avss bias_nstack_0[9]/nbias
+ bias_nstack
Xbias_nstack_0[48] bias_nstack_0[61]/itail ena bias_nstack_0[9]/nbias avss bias_nstack_0[9]/nbias
+ bias_nstack
Xbias_nstack_0[49] bias_nstack_0[61]/itail ena bias_nstack_0[9]/nbias avss bias_nstack_0[9]/nbias
+ bias_nstack
Xbias_nstack_0[50] bias_nstack_0[61]/itail ena bias_nstack_0[9]/nbias avss bias_nstack_0[9]/nbias
+ bias_nstack
Xbias_nstack_0[51] bias_nstack_0[61]/itail ena bias_nstack_0[9]/nbias avss bias_nstack_0[9]/nbias
+ bias_nstack
Xbias_nstack_0[52] bias_nstack_0[61]/itail ena bias_nstack_0[9]/nbias avss bias_nstack_0[9]/nbias
+ bias_nstack
Xbias_nstack_0[53] bias_nstack_0[61]/itail ena bias_nstack_0[9]/nbias avss bias_nstack_0[9]/nbias
+ bias_nstack
Xbias_nstack_0[54] bias_nstack_0[61]/itail ena bias_nstack_0[9]/nbias avss bias_nstack_0[9]/nbias
+ bias_nstack
Xbias_nstack_0[55] bias_nstack_0[61]/itail ena bias_nstack_0[9]/nbias avss bias_nstack_0[9]/nbias
+ bias_nstack
Xbias_nstack_0[56] bias_nstack_0[61]/itail ena bias_nstack_0[9]/nbias avss bias_nstack_0[9]/nbias
+ bias_nstack
Xbias_nstack_0[57] bias_nstack_0[61]/itail ena bias_nstack_0[9]/nbias avss bias_nstack_0[9]/nbias
+ bias_nstack
Xbias_nstack_0[58] bias_nstack_0[61]/itail ena bias_nstack_0[9]/nbias avss bias_nstack_0[9]/nbias
+ bias_nstack
Xbias_nstack_0[59] bias_nstack_0[61]/itail ena bias_nstack_0[9]/nbias avss bias_nstack_0[9]/nbias
+ bias_nstack
Xbias_nstack_0[60] bias_nstack_0[61]/itail ena bias_nstack_0[9]/nbias avss bias_nstack_0[9]/nbias
+ bias_nstack
Xbias_nstack_0[61] bias_nstack_0[61]/itail ena bias_nstack_0[9]/nbias avss bias_nstack_0[9]/nbias
+ bias_nstack
Xbias_nstack_0[62] bias_pstack_0[62]/itail ena bias_nstack_0[9]/nbias avss bias_nstack_0[62]/vcasc
+ bias_nstack
Xbias_nstack_0[63] snk_5000_0 ena_5000_0 bias_nstack_0[9]/nbias avss bias_nstack_0[63]/vcasc
+ bias_nstack
Xbias_nstack_0[64] snk_5000_0 ena_5000_0 bias_nstack_0[9]/nbias avss bias_nstack_0[64]/vcasc
+ bias_nstack
Xbias_nstack_0[65] snk_5000_0 ena_5000_0 bias_nstack_0[9]/nbias avss bias_nstack_0[65]/vcasc
+ bias_nstack
Xbias_nstack_0[66] snk_5000_0 ena_5000_0 bias_nstack_0[9]/nbias avss bias_nstack_0[66]/vcasc
+ bias_nstack
Xbias_nstack_0[67] snk_5000_0 ena_5000_0 bias_nstack_0[9]/nbias avss bias_nstack_0[67]/vcasc
+ bias_nstack
Xbias_nstack_0[68] snk_5000_0 ena_5000_0 bias_nstack_0[9]/nbias avss bias_nstack_0[68]/vcasc
+ bias_nstack
Xbias_nstack_0[69] snk_5000_0 ena_5000_0 bias_nstack_0[9]/nbias avss bias_nstack_0[69]/vcasc
+ bias_nstack
Xbias_nstack_0[70] snk_5000_0 ena_5000_0 bias_nstack_0[9]/nbias avss bias_nstack_0[70]/vcasc
+ bias_nstack
Xbias_nstack_0[71] snk_5000_0 ena_5000_0 bias_nstack_0[9]/nbias avss bias_nstack_0[71]/vcasc
+ bias_nstack
Xbias_nstack_0[72] snk_5000_0 ena_5000_0 bias_nstack_0[9]/nbias avss bias_nstack_0[72]/vcasc
+ bias_nstack
Xbias_nstack_0[73] snk_5000_0 ena_5000_0 bias_nstack_0[9]/nbias avss bias_nstack_0[73]/vcasc
+ bias_nstack
Xbias_nstack_0[74] snk_5000_0 ena_5000_0 bias_nstack_0[9]/nbias avss bias_nstack_0[74]/vcasc
+ bias_nstack
Xbias_nstack_0[75] snk_5000_0 ena_5000_0 bias_nstack_0[9]/nbias avss bias_nstack_0[75]/vcasc
+ bias_nstack
Xbias_nstack_0[76] snk_5000_0 ena_5000_0 bias_nstack_0[9]/nbias avss bias_nstack_0[76]/vcasc
+ bias_nstack
Xbias_nstack_0[77] snk_5000_0 ena_5000_0 bias_nstack_0[9]/nbias avss bias_nstack_0[77]/vcasc
+ bias_nstack
Xbias_nstack_0[78] snk_5000_0 ena_5000_0 bias_nstack_0[9]/nbias avss bias_nstack_0[78]/vcasc
+ bias_nstack
Xbias_nstack_0[79] snk_5000_0 ena_5000_0 bias_nstack_0[9]/nbias avss bias_nstack_0[79]/vcasc
+ bias_nstack
Xbias_nstack_0[80] snk_5000_0 ena_5000_0 bias_nstack_0[9]/nbias avss bias_nstack_0[80]/vcasc
+ bias_nstack
Xbias_nstack_0[81] snk_5000_0 ena_5000_0 bias_nstack_0[9]/nbias avss bias_nstack_0[81]/vcasc
+ bias_nstack
Xbias_nstack_0[82] snk_5000_0 ena_5000_0 bias_nstack_0[9]/nbias avss bias_nstack_0[82]/vcasc
+ bias_nstack
Xbias_nstack_0[83] snk_5000_0 ena_5000_0 bias_nstack_0[9]/nbias avss bias_nstack_0[83]/vcasc
+ bias_nstack
Xbias_nstack_0[84] snk_5000_0 ena_5000_0 bias_nstack_0[9]/nbias avss bias_nstack_0[84]/vcasc
+ bias_nstack
Xbias_nstack_0[85] snk_5000_0 ena_5000_0 bias_nstack_0[9]/nbias avss bias_nstack_0[85]/vcasc
+ bias_nstack
Xbias_nstack_0[86] snk_5000_0 ena_5000_0 bias_nstack_0[9]/nbias avss bias_nstack_0[86]/vcasc
+ bias_nstack
Xbias_nstack_0[87] snk_5000_0 ena_5000_0 bias_nstack_0[9]/nbias avss bias_nstack_0[87]/vcasc
+ bias_nstack
Xbias_nstack_0[88] snk_5000_0 ena_5000_0 bias_nstack_0[9]/nbias avss bias_nstack_0[88]/vcasc
+ bias_nstack
Xbias_nstack_0[89] snk_5000_0 ena_5000_0 bias_nstack_0[9]/nbias avss bias_nstack_0[89]/vcasc
+ bias_nstack
Xbias_nstack_0[90] snk_5000_0 ena_5000_0 bias_nstack_0[9]/nbias avss bias_nstack_0[90]/vcasc
+ bias_nstack
Xbias_nstack_0[91] snk_5000_0 ena_5000_0 bias_nstack_0[9]/nbias avss bias_nstack_0[91]/vcasc
+ bias_nstack
Xbias_nstack_0[92] snk_5000_0 ena_5000_0 bias_nstack_0[9]/nbias avss bias_nstack_0[92]/vcasc
+ bias_nstack
Xbias_nstack_0[93] snk_5000_0 ena_5000_0 bias_nstack_0[9]/nbias avss bias_nstack_0[93]/vcasc
+ bias_nstack
Xbias_nstack_0[94] snk_5000_0 ena_5000_0 bias_nstack_0[9]/nbias avss bias_nstack_0[94]/vcasc
+ bias_nstack
Xbias_nstack_0[95] snk_5000_0 ena_5000_0 bias_nstack_0[9]/nbias avss bias_nstack_0[95]/vcasc
+ bias_nstack
Xbias_nstack_0[96] snk_5000_0 ena_5000_0 bias_nstack_0[9]/nbias avss bias_nstack_0[96]/vcasc
+ bias_nstack
Xbias_nstack_0[97] snk_5000_0 ena_5000_0 bias_nstack_0[9]/nbias avss bias_nstack_0[97]/vcasc
+ bias_nstack
Xbias_nstack_0[98] snk_5000_0 ena_5000_0 bias_nstack_0[9]/nbias avss bias_nstack_0[98]/vcasc
+ bias_nstack
Xbias_nstack_0[99] snk_5000_0 ena_5000_0 bias_nstack_0[9]/nbias avss bias_nstack_0[99]/vcasc
+ bias_nstack
Xbias_nstack_0[100] snk_5000_0 ena_5000_0 bias_nstack_0[9]/nbias avss bias_nstack_0[100]/vcasc
+ bias_nstack
Xbias_nstack_0[101] snk_5000_0 ena_5000_0 bias_nstack_0[9]/nbias avss bias_nstack_0[101]/vcasc
+ bias_nstack
Xbias_nstack_0[102] snk_5000_0 ena_5000_0 bias_nstack_0[9]/nbias avss bias_nstack_0[102]/vcasc
+ bias_nstack
Xbias_nstack_0[103] snk_5000_0 ena_5000_0 bias_nstack_0[9]/nbias avss bias_nstack_0[103]/vcasc
+ bias_nstack
Xbias_nstack_0[104] snk_5000_0 ena_5000_0 bias_nstack_0[9]/nbias avss bias_nstack_0[104]/vcasc
+ bias_nstack
Xbias_nstack_0[105] snk_5000_0 ena_5000_0 bias_nstack_0[9]/nbias avss bias_nstack_0[105]/vcasc
+ bias_nstack
Xbias_nstack_0[106] snk_5000_0 ena_5000_0 bias_nstack_0[9]/nbias avss bias_nstack_0[106]/vcasc
+ bias_nstack
Xbias_nstack_0[107] snk_5000_0 ena_5000_0 bias_nstack_0[9]/nbias avss bias_nstack_0[107]/vcasc
+ bias_nstack
Xbias_nstack_0[108] snk_5000_0 ena_5000_0 bias_nstack_0[9]/nbias avss bias_nstack_0[108]/vcasc
+ bias_nstack
Xbias_nstack_0[109] snk_5000_0 ena_5000_0 bias_nstack_0[9]/nbias avss bias_nstack_0[109]/vcasc
+ bias_nstack
Xbias_nstack_0[110] snk_5000_0 ena_5000_0 bias_nstack_0[9]/nbias avss bias_nstack_0[110]/vcasc
+ bias_nstack
Xbias_nstack_0[111] snk_5000_0 ena_5000_0 bias_nstack_0[9]/nbias avss bias_nstack_0[111]/vcasc
+ bias_nstack
Xbias_nstack_0[112] snk_5000_0 ena_5000_0 bias_nstack_0[9]/nbias avss bias_nstack_0[112]/vcasc
+ bias_nstack
Xbias_nstack_0[113] snk_5000_0 ena_5000_0 bias_nstack_0[9]/nbias avss bias_nstack_0[113]/vcasc
+ bias_nstack
Xbias_nstack_0[114] snk_5000_0 ena_5000_0 bias_nstack_0[9]/nbias avss bias_nstack_0[114]/vcasc
+ bias_nstack
Xbias_nstack_0[115] snk_5000_0 ena_5000_0 bias_nstack_0[9]/nbias avss bias_nstack_0[115]/vcasc
+ bias_nstack
Xbias_nstack_0[116] snk_5000_0 ena_5000_0 bias_nstack_0[9]/nbias avss bias_nstack_0[116]/vcasc
+ bias_nstack
Xbias_nstack_0[117] snk_5000_0 ena_5000_0 bias_nstack_0[9]/nbias avss bias_nstack_0[117]/vcasc
+ bias_nstack
Xbias_nstack_0[118] snk_5000_0 ena_5000_0 bias_nstack_0[9]/nbias avss bias_nstack_0[118]/vcasc
+ bias_nstack
Xbias_nstack_0[119] snk_5000_0 ena_5000_0 bias_nstack_0[9]/nbias avss bias_nstack_0[119]/vcasc
+ bias_nstack
Xbias_nstack_0[120] snk_5000_0 ena_5000_0 bias_nstack_0[9]/nbias avss bias_nstack_0[120]/vcasc
+ bias_nstack
Xbias_nstack_0[121] snk_5000_0 ena_5000_0 bias_nstack_0[9]/nbias avss bias_nstack_0[121]/vcasc
+ bias_nstack
Xbias_nstack_0[122] snk_5000_0 ena_5000_0 bias_nstack_0[9]/nbias avss bias_nstack_0[122]/vcasc
+ bias_nstack
Xbias_nstack_0[123] snk_5000_0 ena_5000_0 bias_nstack_0[9]/nbias avss bias_nstack_0[123]/vcasc
+ bias_nstack
Xbias_nstack_0[124] snk_5000_0 ena_5000_0 bias_nstack_0[9]/nbias avss bias_nstack_0[124]/vcasc
+ bias_nstack
Xbias_nstack_0[125] snk_5000_0 ena_5000_0 bias_nstack_0[9]/nbias avss bias_nstack_0[125]/vcasc
+ bias_nstack
Xbias_nstack_0[126] snk_5000_0 ena_5000_0 bias_nstack_0[9]/nbias avss bias_nstack_0[126]/vcasc
+ bias_nstack
Xbias_nstack_0[127] snk_5000_0 ena_5000_0 bias_nstack_0[9]/nbias avss bias_nstack_0[127]/vcasc
+ bias_nstack
Xbias_nstack_0[128] snk_5000_0 ena_5000_0 bias_nstack_0[9]/nbias avss bias_nstack_0[128]/vcasc
+ bias_nstack
Xbias_nstack_0[129] snk_5000_0 ena_5000_0 bias_nstack_0[9]/nbias avss bias_nstack_0[129]/vcasc
+ bias_nstack
Xbias_nstack_0[130] snk_5000_0 ena_5000_0 bias_nstack_0[9]/nbias avss bias_nstack_0[130]/vcasc
+ bias_nstack
Xbias_nstack_0[131] snk_5000_0 ena_5000_0 bias_nstack_0[9]/nbias avss bias_nstack_0[131]/vcasc
+ bias_nstack
Xbias_nstack_0[132] snk_5000_0 ena_5000_0 bias_nstack_0[9]/nbias avss bias_nstack_0[132]/vcasc
+ bias_nstack
Xbias_nstack_0[133] snk_5000_0 ena_5000_0 bias_nstack_0[9]/nbias avss bias_nstack_0[133]/vcasc
+ bias_nstack
Xbias_nstack_0[134] snk_5000_0 ena_5000_0 bias_nstack_0[9]/nbias avss bias_nstack_0[134]/vcasc
+ bias_nstack
Xbias_nstack_0[135] snk_5000_0 ena_5000_0 bias_nstack_0[9]/nbias avss bias_nstack_0[135]/vcasc
+ bias_nstack
Xbias_nstack_0[136] snk_5000_0 ena_5000_0 bias_nstack_0[9]/nbias avss bias_nstack_0[136]/vcasc
+ bias_nstack
Xbias_nstack_0[137] snk_5000_0 ena_5000_0 bias_nstack_0[9]/nbias avss bias_nstack_0[137]/vcasc
+ bias_nstack
Xbias_nstack_0[138] snk_5000_0 ena_5000_0 bias_nstack_0[9]/nbias avss bias_nstack_0[138]/vcasc
+ bias_nstack
Xbias_nstack_0[139] snk_5000_0 ena_5000_0 bias_nstack_0[9]/nbias avss bias_nstack_0[139]/vcasc
+ bias_nstack
Xbias_nstack_0[140] snk_5000_0 ena_5000_0 bias_nstack_0[9]/nbias avss bias_nstack_0[140]/vcasc
+ bias_nstack
Xbias_nstack_0[141] snk_5000_0 ena_5000_0 bias_nstack_0[9]/nbias avss bias_nstack_0[141]/vcasc
+ bias_nstack
Xbias_nstack_0[142] snk_5000_0 ena_5000_0 bias_nstack_0[9]/nbias avss bias_nstack_0[142]/vcasc
+ bias_nstack
Xbias_nstack_0[143] snk_5000_0 ena_5000_0 bias_nstack_0[9]/nbias avss bias_nstack_0[143]/vcasc
+ bias_nstack
Xbias_nstack_0[144] snk_5000_0 ena_5000_0 bias_nstack_0[9]/nbias avss bias_nstack_0[144]/vcasc
+ bias_nstack
Xbias_nstack_0[145] snk_5000_0 ena_5000_0 bias_nstack_0[9]/nbias avss bias_nstack_0[145]/vcasc
+ bias_nstack
Xbias_nstack_0[146] snk_5000_0 ena_5000_0 bias_nstack_0[9]/nbias avss bias_nstack_0[146]/vcasc
+ bias_nstack
Xbias_nstack_0[147] snk_5000_0 ena_5000_0 bias_nstack_0[9]/nbias avss bias_nstack_0[147]/vcasc
+ bias_nstack
Xbias_nstack_0[148] snk_5000_0 ena_5000_0 bias_nstack_0[9]/nbias avss bias_nstack_0[148]/vcasc
+ bias_nstack
Xbias_nstack_0[149] snk_5000_0 ena_5000_0 bias_nstack_0[9]/nbias avss bias_nstack_0[149]/vcasc
+ bias_nstack
Xbias_nstack_0[150] snk_5000_0 ena_5000_0 bias_nstack_0[9]/nbias avss bias_nstack_0[150]/vcasc
+ bias_nstack
Xbias_nstack_0[151] snk_5000_0 ena_5000_0 bias_nstack_0[9]/nbias avss bias_nstack_0[151]/vcasc
+ bias_nstack
Xbias_nstack_0[152] snk_5000_0 ena_5000_0 bias_nstack_0[9]/nbias avss bias_nstack_0[152]/vcasc
+ bias_nstack
Xbias_nstack_0[153] snk_5000_0 ena_5000_0 bias_nstack_0[9]/nbias avss bias_nstack_0[153]/vcasc
+ bias_nstack
Xbias_nstack_0[154] snk_5000_0 ena_5000_0 bias_nstack_0[9]/nbias avss bias_nstack_0[154]/vcasc
+ bias_nstack
Xbias_nstack_0[155] snk_5000_0 ena_5000_0 bias_nstack_0[9]/nbias avss bias_nstack_0[155]/vcasc
+ bias_nstack
Xbias_nstack_0[156] snk_5000_0 ena_5000_0 bias_nstack_0[9]/nbias avss bias_nstack_0[156]/vcasc
+ bias_nstack
Xbias_nstack_0[157] snk_5000_0 ena_5000_0 bias_nstack_0[9]/nbias avss bias_nstack_0[157]/vcasc
+ bias_nstack
Xbias_nstack_0[158] snk_5000_0 ena_5000_0 bias_nstack_0[9]/nbias avss bias_nstack_0[158]/vcasc
+ bias_nstack
Xbias_nstack_0[159] snk_5000_0 ena_5000_0 bias_nstack_0[9]/nbias avss bias_nstack_0[159]/vcasc
+ bias_nstack
Xbias_nstack_0[160] snk_5000_0 ena_5000_0 bias_nstack_0[9]/nbias avss bias_nstack_0[160]/vcasc
+ bias_nstack
Xbias_nstack_0[161] snk_5000_0 ena_5000_0 bias_nstack_0[9]/nbias avss bias_nstack_0[161]/vcasc
+ bias_nstack
Xbias_nstack_0[162] snk_5000_0 ena_5000_0 bias_nstack_0[9]/nbias avss bias_nstack_0[162]/vcasc
+ bias_nstack
Xbias_nstack_0[163] snk_5000_1 ena_5000_1 bias_nstack_0[9]/nbias avss bias_nstack_0[163]/vcasc
+ bias_nstack
Xbias_nstack_0[164] snk_5000_1 ena_5000_1 bias_nstack_0[9]/nbias avss bias_nstack_0[164]/vcasc
+ bias_nstack
Xbias_nstack_0[165] snk_5000_1 ena_5000_1 bias_nstack_0[9]/nbias avss bias_nstack_0[165]/vcasc
+ bias_nstack
Xbias_nstack_0[166] snk_5000_1 ena_5000_1 bias_nstack_0[9]/nbias avss bias_nstack_0[166]/vcasc
+ bias_nstack
Xbias_nstack_0[167] snk_5000_1 ena_5000_1 bias_nstack_0[9]/nbias avss bias_nstack_0[167]/vcasc
+ bias_nstack
Xbias_nstack_0[168] snk_5000_1 ena_5000_1 bias_nstack_0[9]/nbias avss bias_nstack_0[168]/vcasc
+ bias_nstack
Xbias_nstack_0[169] snk_5000_1 ena_5000_1 bias_nstack_0[9]/nbias avss bias_nstack_0[169]/vcasc
+ bias_nstack
Xbias_nstack_0[170] snk_5000_1 ena_5000_1 bias_nstack_0[9]/nbias avss bias_nstack_0[170]/vcasc
+ bias_nstack
Xbias_nstack_0[171] snk_5000_1 ena_5000_1 bias_nstack_0[9]/nbias avss bias_nstack_0[171]/vcasc
+ bias_nstack