* NGSPICE file created from power_stage.ext - technology: sky130A

.subckt sky130_fd_pr__nfet_g5v0d10v5_WQT6C6 a_1235_n700# a_3447_n700# a_5659_n700#
+ a_n287_n788# a_761_n700# a_n4079_n788# a_819_n788# a_2657_n700# a_4869_n700# a_5185_n700#
+ a_n1077_n788# a_n3289_n788# a_1867_n700# a_2183_n700# a_345_n788# a_4395_n700# a_n29_n700#
+ a_n2499_n788# a_1393_n700# a_n919_n788# a_6607_n700# a_977_n788# a_n5027_n788# a_3605_n700#
+ a_5817_n700# a_n445_n788# a_3189_n788# a_n187_n700# a_6133_n700# a_n1709_n788# a_n2025_n788#
+ a_n4237_n788# a_2815_n700# a_n6449_n788# a_3131_n700# a_5343_n700# a_2399_n788#
+ a_n1235_n788# a_n3447_n788# a_n5659_n788# a_n3189_n700# a_2341_n700# a_4553_n700#
+ a_503_n788# a_6765_n700# a_n2657_n788# a_n4869_n788# a_n5185_n788# a_n2399_n700#
+ a_1551_n700# a_3763_n700# a_5975_n700# a_1609_n788# a_6291_n700# a_n1867_n788# a_6349_n788#
+ a_n819_n700# a_4137_n788# a_n2183_n788# a_n4395_n788# a_2973_n700# a_n603_n788#
+ a_3347_n788# a_1135_n788# a_n345_n700# a_5559_n788# a_n1393_n788# a_n1609_n700#
+ a_n6607_n788# a_661_n788# a_n6349_n700# a_n4137_n700# a_5501_n700# a_4769_n788#
+ a_2557_n788# a_5085_n788# a_n3605_n788# a_n5817_n788# a_n3347_n700# a_n1135_n700#
+ a_n6133_n788# a_n5559_n700# a_4711_n700# a_6923_n700# a_3979_n788# a_1767_n788#
+ a_n977_n700# a_4295_n788# a_2083_n788# a_n2815_n788# a_n3131_n788# a_n5343_n788#
+ a_n4769_n700# a_n2557_n700# a_3921_n700# a_n5085_n700# a_1293_n788# a_n761_n788#
+ a_6507_n788# a_n2341_n788# a_n3979_n700# a_n1767_n700# a_n4553_n788# a_n6765_n788#
+ a_n4295_n700# a_n2083_n700# a_5717_n788# a_3505_n788# a_6033_n788# a_n503_n700#
+ a_n1551_n788# a_n3763_n788# a_n5975_n788# a_n1293_n700# a_129_n700# a_n6291_n788#
+ a_n6507_n700# a_2715_n788# a_4927_n788# a_3031_n788# a_n2973_n788# a_5243_n788#
+ a_n5717_n700# a_n3505_n700# a_n6033_n700# a_1925_n788# a_4453_n788# a_2241_n788#
+ a_6665_n788# a_n2715_n700# a_n5501_n788# a_n4927_n700# a_n3031_n700# a_n5243_n700#
+ a_1451_n788# a_5875_n788# a_n661_n700# a_3663_n788# a_6191_n788# a_287_n700# a_n4711_n788#
+ a_n1925_n700# a_n6923_n788# a_n4453_n700# a_n2241_n700# a_n6665_n700# a_2873_n788#
+ a_n3921_n788# a_n1451_n700# a_n5875_n700# a_n3663_n700# a_n6191_n700# a_5401_n788#
+ a_n2873_n700# a_6823_n788# a_4611_n788# a_919_n700# a_n5401_n700# a_3821_n788# a_445_n700#
+ a_n6823_n700# a_n4611_n700# a_n3821_n700# a_4079_n700# a_1077_n700# a_3289_n700#
+ a_29_n788# a_2499_n700# a_n6981_n700# a_n129_n788# a_603_n700# a_187_n788# a_5027_n700#
+ a_1709_n700# a_2025_n700# a_4237_n700# a_6449_n700# VSUBS
X0 a_n6349_n700# a_n6449_n788# a_n6507_n700# VSUBS sky130_fd_pr__nfet_g5v0d10v5 ad=1.015 pd=7.29 as=1.015 ps=7.29 w=7 l=0.5
X1 a_n5875_n700# a_n5975_n788# a_n6033_n700# VSUBS sky130_fd_pr__nfet_g5v0d10v5 ad=1.015 pd=7.29 as=1.015 ps=7.29 w=7 l=0.5
X2 a_n3505_n700# a_n3605_n788# a_n3663_n700# VSUBS sky130_fd_pr__nfet_g5v0d10v5 ad=1.015 pd=7.29 as=1.015 ps=7.29 w=7 l=0.5
X3 a_3605_n700# a_3505_n788# a_3447_n700# VSUBS sky130_fd_pr__nfet_g5v0d10v5 ad=1.015 pd=7.29 as=1.015 ps=7.29 w=7 l=0.5
X4 a_5975_n700# a_5875_n788# a_5817_n700# VSUBS sky130_fd_pr__nfet_g5v0d10v5 ad=1.015 pd=7.29 as=1.015 ps=7.29 w=7 l=0.5
X5 a_6449_n700# a_6349_n788# a_6291_n700# VSUBS sky130_fd_pr__nfet_g5v0d10v5 ad=1.015 pd=7.29 as=1.015 ps=7.29 w=7 l=0.5
X6 a_n6191_n700# a_n6291_n788# a_n6349_n700# VSUBS sky130_fd_pr__nfet_g5v0d10v5 ad=1.015 pd=7.29 as=1.015 ps=7.29 w=7 l=0.5
X7 a_n977_n700# a_n1077_n788# a_n1135_n700# VSUBS sky130_fd_pr__nfet_g5v0d10v5 ad=1.015 pd=7.29 as=1.015 ps=7.29 w=7 l=0.5
X8 a_6291_n700# a_6191_n788# a_6133_n700# VSUBS sky130_fd_pr__nfet_g5v0d10v5 ad=1.015 pd=7.29 as=1.015 ps=7.29 w=7 l=0.5
X9 a_n503_n700# a_n603_n788# a_n661_n700# VSUBS sky130_fd_pr__nfet_g5v0d10v5 ad=1.015 pd=7.29 as=1.015 ps=7.29 w=7 l=0.5
X10 a_1077_n700# a_977_n788# a_919_n700# VSUBS sky130_fd_pr__nfet_g5v0d10v5 ad=1.015 pd=7.29 as=1.015 ps=7.29 w=7 l=0.5
X11 a_n5401_n700# a_n5501_n788# a_n5559_n700# VSUBS sky130_fd_pr__nfet_g5v0d10v5 ad=1.015 pd=7.29 as=1.015 ps=7.29 w=7 l=0.5
X12 a_n2557_n700# a_n2657_n788# a_n2715_n700# VSUBS sky130_fd_pr__nfet_g5v0d10v5 ad=1.015 pd=7.29 as=1.015 ps=7.29 w=7 l=0.5
X13 a_2657_n700# a_2557_n788# a_2499_n700# VSUBS sky130_fd_pr__nfet_g5v0d10v5 ad=1.015 pd=7.29 as=1.015 ps=7.29 w=7 l=0.5
X14 a_5501_n700# a_5401_n788# a_5343_n700# VSUBS sky130_fd_pr__nfet_g5v0d10v5 ad=1.015 pd=7.29 as=1.015 ps=7.29 w=7 l=0.5
X15 a_n4927_n700# a_n5027_n788# a_n5085_n700# VSUBS sky130_fd_pr__nfet_g5v0d10v5 ad=1.015 pd=7.29 as=1.015 ps=7.29 w=7 l=0.5
X16 a_n4453_n700# a_n4553_n788# a_n4611_n700# VSUBS sky130_fd_pr__nfet_g5v0d10v5 ad=1.015 pd=7.29 as=1.015 ps=7.29 w=7 l=0.5
X17 a_n29_n700# a_n129_n788# a_n187_n700# VSUBS sky130_fd_pr__nfet_g5v0d10v5 ad=1.015 pd=7.29 as=1.015 ps=7.29 w=7 l=0.5
X18 a_603_n700# a_503_n788# a_445_n700# VSUBS sky130_fd_pr__nfet_g5v0d10v5 ad=1.015 pd=7.29 as=1.015 ps=7.29 w=7 l=0.5
X19 a_4553_n700# a_4453_n788# a_4395_n700# VSUBS sky130_fd_pr__nfet_g5v0d10v5 ad=1.015 pd=7.29 as=1.015 ps=7.29 w=7 l=0.5
X20 a_n6507_n700# a_n6607_n788# a_n6665_n700# VSUBS sky130_fd_pr__nfet_g5v0d10v5 ad=1.015 pd=7.29 as=1.015 ps=7.29 w=7 l=0.5
X21 a_6607_n700# a_6507_n788# a_6449_n700# VSUBS sky130_fd_pr__nfet_g5v0d10v5 ad=1.015 pd=7.29 as=1.015 ps=7.29 w=7 l=0.5
X22 a_n3979_n700# a_n4079_n788# a_n4137_n700# VSUBS sky130_fd_pr__nfet_g5v0d10v5 ad=1.015 pd=7.29 as=1.015 ps=7.29 w=7 l=0.5
X23 a_n1135_n700# a_n1235_n788# a_n1293_n700# VSUBS sky130_fd_pr__nfet_g5v0d10v5 ad=1.015 pd=7.29 as=1.015 ps=7.29 w=7 l=0.5
X24 a_1235_n700# a_1135_n788# a_1077_n700# VSUBS sky130_fd_pr__nfet_g5v0d10v5 ad=1.015 pd=7.29 as=1.015 ps=7.29 w=7 l=0.5
X25 a_5659_n700# a_5559_n788# a_5501_n700# VSUBS sky130_fd_pr__nfet_g5v0d10v5 ad=1.015 pd=7.29 as=1.015 ps=7.29 w=7 l=0.5
X26 a_n5559_n700# a_n5659_n788# a_n5717_n700# VSUBS sky130_fd_pr__nfet_g5v0d10v5 ad=1.015 pd=7.29 as=1.015 ps=7.29 w=7 l=0.5
X27 a_n2715_n700# a_n2815_n788# a_n2873_n700# VSUBS sky130_fd_pr__nfet_g5v0d10v5 ad=1.015 pd=7.29 as=1.015 ps=7.29 w=7 l=0.5
X28 a_2815_n700# a_2715_n788# a_2657_n700# VSUBS sky130_fd_pr__nfet_g5v0d10v5 ad=1.015 pd=7.29 as=1.015 ps=7.29 w=7 l=0.5
X29 a_n3031_n700# a_n3131_n788# a_n3189_n700# VSUBS sky130_fd_pr__nfet_g5v0d10v5 ad=1.015 pd=7.29 as=1.015 ps=7.29 w=7 l=0.5
X30 a_3131_n700# a_3031_n788# a_2973_n700# VSUBS sky130_fd_pr__nfet_g5v0d10v5 ad=1.015 pd=7.29 as=1.015 ps=7.29 w=7 l=0.5
X31 a_n4611_n700# a_n4711_n788# a_n4769_n700# VSUBS sky130_fd_pr__nfet_g5v0d10v5 ad=1.015 pd=7.29 as=1.015 ps=7.29 w=7 l=0.5
X32 a_n1767_n700# a_n1867_n788# a_n1925_n700# VSUBS sky130_fd_pr__nfet_g5v0d10v5 ad=1.015 pd=7.29 as=1.015 ps=7.29 w=7 l=0.5
X33 a_1867_n700# a_1767_n788# a_1709_n700# VSUBS sky130_fd_pr__nfet_g5v0d10v5 ad=1.015 pd=7.29 as=1.015 ps=7.29 w=7 l=0.5
X34 a_4711_n700# a_4611_n788# a_4553_n700# VSUBS sky130_fd_pr__nfet_g5v0d10v5 ad=1.015 pd=7.29 as=1.015 ps=7.29 w=7 l=0.5
X35 a_2183_n700# a_2083_n788# a_2025_n700# VSUBS sky130_fd_pr__nfet_g5v0d10v5 ad=1.015 pd=7.29 as=1.015 ps=7.29 w=7 l=0.5
X36 a_n2083_n700# a_n2183_n788# a_n2241_n700# VSUBS sky130_fd_pr__nfet_g5v0d10v5 ad=1.015 pd=7.29 as=1.015 ps=7.29 w=7 l=0.5
X37 a_n4137_n700# a_n4237_n788# a_n4295_n700# VSUBS sky130_fd_pr__nfet_g5v0d10v5 ad=1.015 pd=7.29 as=1.015 ps=7.29 w=7 l=0.5
X38 a_n3663_n700# a_n3763_n788# a_n3821_n700# VSUBS sky130_fd_pr__nfet_g5v0d10v5 ad=1.015 pd=7.29 as=1.015 ps=7.29 w=7 l=0.5
X39 a_3763_n700# a_3663_n788# a_3605_n700# VSUBS sky130_fd_pr__nfet_g5v0d10v5 ad=1.015 pd=7.29 as=1.015 ps=7.29 w=7 l=0.5
X40 a_4237_n700# a_4137_n788# a_4079_n700# VSUBS sky130_fd_pr__nfet_g5v0d10v5 ad=1.015 pd=7.29 as=1.015 ps=7.29 w=7 l=0.5
X41 a_n819_n700# a_n919_n788# a_n977_n700# VSUBS sky130_fd_pr__nfet_g5v0d10v5 ad=1.015 pd=7.29 as=1.015 ps=7.29 w=7 l=0.5
X42 a_n5717_n700# a_n5817_n788# a_n5875_n700# VSUBS sky130_fd_pr__nfet_g5v0d10v5 ad=1.015 pd=7.29 as=1.015 ps=7.29 w=7 l=0.5
X43 a_n661_n700# a_n761_n788# a_n819_n700# VSUBS sky130_fd_pr__nfet_g5v0d10v5 ad=1.015 pd=7.29 as=1.015 ps=7.29 w=7 l=0.5
X44 a_5817_n700# a_5717_n788# a_5659_n700# VSUBS sky130_fd_pr__nfet_g5v0d10v5 ad=1.015 pd=7.29 as=1.015 ps=7.29 w=7 l=0.5
X45 a_n6033_n700# a_n6133_n788# a_n6191_n700# VSUBS sky130_fd_pr__nfet_g5v0d10v5 ad=1.015 pd=7.29 as=1.015 ps=7.29 w=7 l=0.5
X46 a_n3189_n700# a_n3289_n788# a_n3347_n700# VSUBS sky130_fd_pr__nfet_g5v0d10v5 ad=1.015 pd=7.29 as=1.015 ps=7.29 w=7 l=0.5
X47 a_3289_n700# a_3189_n788# a_3131_n700# VSUBS sky130_fd_pr__nfet_g5v0d10v5 ad=1.015 pd=7.29 as=1.015 ps=7.29 w=7 l=0.5
X48 a_6133_n700# a_6033_n788# a_5975_n700# VSUBS sky130_fd_pr__nfet_g5v0d10v5 ad=1.015 pd=7.29 as=1.015 ps=7.29 w=7 l=0.5
X49 a_n4769_n700# a_n4869_n788# a_n4927_n700# VSUBS sky130_fd_pr__nfet_g5v0d10v5 ad=1.015 pd=7.29 as=1.015 ps=7.29 w=7 l=0.5
X50 a_919_n700# a_819_n788# a_761_n700# VSUBS sky130_fd_pr__nfet_g5v0d10v5 ad=1.015 pd=7.29 as=1.015 ps=7.29 w=7 l=0.5
X51 a_2025_n700# a_1925_n788# a_1867_n700# VSUBS sky130_fd_pr__nfet_g5v0d10v5 ad=1.015 pd=7.29 as=1.015 ps=7.29 w=7 l=0.5
X52 a_4869_n700# a_4769_n788# a_4711_n700# VSUBS sky130_fd_pr__nfet_g5v0d10v5 ad=1.015 pd=7.29 as=1.015 ps=7.29 w=7 l=0.5
X53 a_n5085_n700# a_n5185_n788# a_n5243_n700# VSUBS sky130_fd_pr__nfet_g5v0d10v5 ad=1.015 pd=7.29 as=1.015 ps=7.29 w=7 l=0.5
X54 a_n187_n700# a_n287_n788# a_n345_n700# VSUBS sky130_fd_pr__nfet_g5v0d10v5 ad=1.015 pd=7.29 as=1.015 ps=7.29 w=7 l=0.5
X55 a_761_n700# a_661_n788# a_603_n700# VSUBS sky130_fd_pr__nfet_g5v0d10v5 ad=1.015 pd=7.29 as=1.015 ps=7.29 w=7 l=0.5
X56 a_5185_n700# a_5085_n788# a_5027_n700# VSUBS sky130_fd_pr__nfet_g5v0d10v5 ad=1.015 pd=7.29 as=1.015 ps=7.29 w=7 l=0.5
X57 a_n2241_n700# a_n2341_n788# a_n2399_n700# VSUBS sky130_fd_pr__nfet_g5v0d10v5 ad=1.015 pd=7.29 as=1.015 ps=7.29 w=7 l=0.5
X58 a_2341_n700# a_2241_n788# a_2183_n700# VSUBS sky130_fd_pr__nfet_g5v0d10v5 ad=1.015 pd=7.29 as=1.015 ps=7.29 w=7 l=0.5
X59 a_n6665_n700# a_n6765_n788# a_n6823_n700# VSUBS sky130_fd_pr__nfet_g5v0d10v5 ad=1.015 pd=7.29 as=1.015 ps=7.29 w=7 l=0.5
X60 a_n3821_n700# a_n3921_n788# a_n3979_n700# VSUBS sky130_fd_pr__nfet_g5v0d10v5 ad=1.015 pd=7.29 as=1.015 ps=7.29 w=7 l=0.5
X61 a_287_n700# a_187_n788# a_129_n700# VSUBS sky130_fd_pr__nfet_g5v0d10v5 ad=1.015 pd=7.29 as=1.015 ps=7.29 w=7 l=0.5
X62 a_3921_n700# a_3821_n788# a_3763_n700# VSUBS sky130_fd_pr__nfet_g5v0d10v5 ad=1.015 pd=7.29 as=1.015 ps=7.29 w=7 l=0.5
X63 a_6765_n700# a_6665_n788# a_6607_n700# VSUBS sky130_fd_pr__nfet_g5v0d10v5 ad=1.015 pd=7.29 as=1.015 ps=7.29 w=7 l=0.5
X64 a_n1293_n700# a_n1393_n788# a_n1451_n700# VSUBS sky130_fd_pr__nfet_g5v0d10v5 ad=1.015 pd=7.29 as=1.015 ps=7.29 w=7 l=0.5
X65 a_1393_n700# a_1293_n788# a_1235_n700# VSUBS sky130_fd_pr__nfet_g5v0d10v5 ad=1.015 pd=7.29 as=1.015 ps=7.29 w=7 l=0.5
X66 a_n3347_n700# a_n3447_n788# a_n3505_n700# VSUBS sky130_fd_pr__nfet_g5v0d10v5 ad=1.015 pd=7.29 as=1.015 ps=7.29 w=7 l=0.5
X67 a_n2873_n700# a_n2973_n788# a_n3031_n700# VSUBS sky130_fd_pr__nfet_g5v0d10v5 ad=1.015 pd=7.29 as=1.015 ps=7.29 w=7 l=0.5
X68 a_2973_n700# a_2873_n788# a_2815_n700# VSUBS sky130_fd_pr__nfet_g5v0d10v5 ad=1.015 pd=7.29 as=1.015 ps=7.29 w=7 l=0.5
X69 a_3447_n700# a_3347_n788# a_3289_n700# VSUBS sky130_fd_pr__nfet_g5v0d10v5 ad=1.015 pd=7.29 as=1.015 ps=7.29 w=7 l=0.5
X70 a_5027_n700# a_4927_n788# a_4869_n700# VSUBS sky130_fd_pr__nfet_g5v0d10v5 ad=1.015 pd=7.29 as=1.015 ps=7.29 w=7 l=0.5
X71 a_n345_n700# a_n445_n788# a_n503_n700# VSUBS sky130_fd_pr__nfet_g5v0d10v5 ad=1.015 pd=7.29 as=1.015 ps=7.29 w=7 l=0.5
X72 a_2499_n700# a_2399_n788# a_2341_n700# VSUBS sky130_fd_pr__nfet_g5v0d10v5 ad=1.015 pd=7.29 as=1.015 ps=7.29 w=7 l=0.5
X73 a_5343_n700# a_5243_n788# a_5185_n700# VSUBS sky130_fd_pr__nfet_g5v0d10v5 ad=1.015 pd=7.29 as=1.015 ps=7.29 w=7 l=0.5
X74 a_n5243_n700# a_n5343_n788# a_n5401_n700# VSUBS sky130_fd_pr__nfet_g5v0d10v5 ad=1.015 pd=7.29 as=1.015 ps=7.29 w=7 l=0.5
X75 a_n2399_n700# a_n2499_n788# a_n2557_n700# VSUBS sky130_fd_pr__nfet_g5v0d10v5 ad=1.015 pd=7.29 as=1.015 ps=7.29 w=7 l=0.5
X76 a_n6823_n700# a_n6923_n788# a_n6981_n700# VSUBS sky130_fd_pr__nfet_g5v0d10v5 ad=1.015 pd=7.29 as=2.03 ps=14.58 w=7 l=0.5
X77 a_n1609_n700# a_n1709_n788# a_n1767_n700# VSUBS sky130_fd_pr__nfet_g5v0d10v5 ad=1.015 pd=7.29 as=1.015 ps=7.29 w=7 l=0.5
X78 a_129_n700# a_29_n788# a_n29_n700# VSUBS sky130_fd_pr__nfet_g5v0d10v5 ad=1.015 pd=7.29 as=1.015 ps=7.29 w=7 l=0.5
X79 a_1709_n700# a_1609_n788# a_1551_n700# VSUBS sky130_fd_pr__nfet_g5v0d10v5 ad=1.015 pd=7.29 as=1.015 ps=7.29 w=7 l=0.5
X80 a_4079_n700# a_3979_n788# a_3921_n700# VSUBS sky130_fd_pr__nfet_g5v0d10v5 ad=1.015 pd=7.29 as=1.015 ps=7.29 w=7 l=0.5
X81 a_6923_n700# a_6823_n788# a_6765_n700# VSUBS sky130_fd_pr__nfet_g5v0d10v5 ad=2.03 pd=14.58 as=1.015 ps=7.29 w=7 l=0.5
X82 a_n4295_n700# a_n4395_n788# a_n4453_n700# VSUBS sky130_fd_pr__nfet_g5v0d10v5 ad=1.015 pd=7.29 as=1.015 ps=7.29 w=7 l=0.5
X83 a_n1925_n700# a_n2025_n788# a_n2083_n700# VSUBS sky130_fd_pr__nfet_g5v0d10v5 ad=1.015 pd=7.29 as=1.015 ps=7.29 w=7 l=0.5
X84 a_n1451_n700# a_n1551_n788# a_n1609_n700# VSUBS sky130_fd_pr__nfet_g5v0d10v5 ad=1.015 pd=7.29 as=1.015 ps=7.29 w=7 l=0.5
X85 a_445_n700# a_345_n788# a_287_n700# VSUBS sky130_fd_pr__nfet_g5v0d10v5 ad=1.015 pd=7.29 as=1.015 ps=7.29 w=7 l=0.5
X86 a_1551_n700# a_1451_n788# a_1393_n700# VSUBS sky130_fd_pr__nfet_g5v0d10v5 ad=1.015 pd=7.29 as=1.015 ps=7.29 w=7 l=0.5
X87 a_4395_n700# a_4295_n788# a_4237_n700# VSUBS sky130_fd_pr__nfet_g5v0d10v5 ad=1.015 pd=7.29 as=1.015 ps=7.29 w=7 l=0.5
.ends

.subckt sky130_fd_pr__nfet_g5v0d10v5_3BH9ZH a_n345_n200# a_129_n200# a_287_n200# a_29_n288#
+ a_n129_n288# a_187_n288# a_n287_n288# a_n29_n200# a_n187_n200# VSUBS
X0 a_n187_n200# a_n287_n288# a_n345_n200# VSUBS sky130_fd_pr__nfet_g5v0d10v5 ad=0.29 pd=2.29 as=0.58 ps=4.58 w=2 l=0.5
X1 a_287_n200# a_187_n288# a_129_n200# VSUBS sky130_fd_pr__nfet_g5v0d10v5 ad=0.58 pd=4.58 as=0.29 ps=2.29 w=2 l=0.5
X2 a_129_n200# a_29_n288# a_n29_n200# VSUBS sky130_fd_pr__nfet_g5v0d10v5 ad=0.29 pd=2.29 as=0.29 ps=2.29 w=2 l=0.5
X3 a_n29_n200# a_n129_n288# a_n187_n200# VSUBS sky130_fd_pr__nfet_g5v0d10v5 ad=0.29 pd=2.29 as=0.29 ps=2.29 w=2 l=0.5
.ends

.subckt sky130_fd_pr__pfet_g5v0d10v5_7WGKBW a_5875_n1597# a_5343_n1500# a_n761_n1597#
+ a_3131_n1500# a_5817_n1500# a_3663_n1597# a_187_n1597# a_129_n1500# a_3605_n1500#
+ a_1451_n1597# a_1925_n1597# a_n2399_n1500# a_n6133_n1597# a_5185_n1500# a_661_n1597#
+ a_n6607_n1597# a_5659_n1500# a_603_n1500# a_3447_n1500# a_3979_n1597# a_1293_n1597#
+ a_n2873_n1500# a_1767_n1597# a_1235_n1500# a_1709_n1500# a_n6449_n1597# a_3921_n1500#
+ a_977_n1597# a_445_n1500# a_n4237_n1597# a_919_n1500# a_3289_n1500# a_n2025_n1597#
+ a_6033_n1597# a_1077_n1500# a_6507_n1597# a_n6923_n1597# a_5975_n1500# a_n5401_n1500#
+ a_n4711_n1597# a_287_n1500# a_3763_n1500# a_n4079_n1597# a_1551_n1500# a_n6291_n1597#
+ a_6349_n1597# a_n6765_n1597# a_761_n1500# a_n5243_n1500# a_n29_n1500# a_4137_n1597#
+ a_n4553_n1597# a_n5717_n1500# a_n3031_n1500# a_n2341_n1597# a_1393_n1500# a_n3505_n1500#
+ a_n2815_n1597# a_6823_n1597# a_1867_n1500# a_4611_n1597# a_n5085_n1500# a_n4395_n1597#
+ a_n5559_n1500# a_6191_n1597# a_n2183_n1597# a_n4869_n1597# a_n3347_n1500# a_6665_n1597#
+ a_6133_n1500# a_n2657_n1597# a_n1135_n1500# a_6607_n1500# a_4453_n1597# a_n1609_n1500#
+ a_4927_n1597# a_n503_n1500# a_2241_n1597# a_n3821_n1500# a_2715_n1597# a_n3189_n1500#
+ a_n2499_n1597# a_6449_n1500# a_4295_n1597# a_n5875_n1500# a_4237_n1500# a_4769_n1597#
+ a_2083_n1597# a_n345_n1500# a_n3663_n1500# a_2025_n1500# a_2557_n1597# a_n2973_n1597#
+ a_n819_n1500# a_n1451_n1500# a_6923_n1500# a_n1925_n1500# a_4711_n1500# a_29_n1597#
+ a_n5027_n1597# a_4079_n1500# a_n187_n1500# a_2399_n1597# a_6291_n1500# a_n3979_n1500#
+ a_n1293_n1500# a_6765_n1500# a_n1767_n1500# a_n5501_n1597# a_4553_n1500# a_n661_n1500#
+ a_2341_n1500# a_2873_n1597# a_2815_n1500# a_n6033_n1500# a_n5343_n1597# a_n6507_n1500#
+ a_4395_n1500# a_n3131_n1597# a_n5817_n1597# a_n977_n1500# a_2183_n1500# a_4869_n1500#
+ a_n3605_n1597# a_2657_n1500# a_5401_n1597# a_n5185_n1597# a_n6349_n1500# a_n5659_n1597#
+ a_n129_n1597# a_n4137_n1500# a_n3447_n1597# a_2499_n1500# a_5243_n1597# a_n1235_n1597#
+ a_n1709_n1597# a_n6823_n1500# a_5717_n1597# a_3031_n1597# a_n603_n1597# a_n4611_n1500#
+ a_3505_n1597# a_n3921_n1597# a_2973_n1500# a_n3289_n1597# a_n1077_n1597# a_n6191_n1500#
+ a_5085_n1597# w_n7017_n1600# a_n6665_n1500# a_5027_n1500# a_5559_n1597# a_503_n1597#
+ a_n5975_n1597# a_n445_n1597# a_n4453_n1500# a_3347_n1597# a_n3763_n1597# a_n919_n1597#
+ a_n4927_n1500# a_n2241_n1500# a_1135_n1597# a_n1551_n1597# a_n2715_n1500# a_1609_n1597#
+ a_5501_n1500# a_3821_n1597# a_345_n1597# a_n287_n1597# a_n4295_n1500# a_3189_n1597#
+ a_819_n1597# a_n4769_n1500# a_n2083_n1500# a_n1393_n1597# a_n6981_n1500# a_n2557_n1500#
+ a_n1867_n1597#
X0 a_n6033_n1500# a_n6133_n1597# a_n6191_n1500# w_n7017_n1600# sky130_fd_pr__pfet_g5v0d10v5 ad=2.175 pd=15.29 as=2.175 ps=15.29 w=15 l=0.5
X1 a_n819_n1500# a_n919_n1597# a_n977_n1500# w_n7017_n1600# sky130_fd_pr__pfet_g5v0d10v5 ad=2.175 pd=15.29 as=2.175 ps=15.29 w=15 l=0.5
X2 a_n6191_n1500# a_n6291_n1597# a_n6349_n1500# w_n7017_n1600# sky130_fd_pr__pfet_g5v0d10v5 ad=2.175 pd=15.29 as=2.175 ps=15.29 w=15 l=0.5
X3 a_n977_n1500# a_n1077_n1597# a_n1135_n1500# w_n7017_n1600# sky130_fd_pr__pfet_g5v0d10v5 ad=2.175 pd=15.29 as=2.175 ps=15.29 w=15 l=0.5
X4 a_2973_n1500# a_2873_n1597# a_2815_n1500# w_n7017_n1600# sky130_fd_pr__pfet_g5v0d10v5 ad=2.175 pd=15.29 as=2.175 ps=15.29 w=15 l=0.5
X5 a_n6507_n1500# a_n6607_n1597# a_n6665_n1500# w_n7017_n1600# sky130_fd_pr__pfet_g5v0d10v5 ad=2.175 pd=15.29 as=2.175 ps=15.29 w=15 l=0.5
X6 a_1235_n1500# a_1135_n1597# a_1077_n1500# w_n7017_n1600# sky130_fd_pr__pfet_g5v0d10v5 ad=2.175 pd=15.29 as=2.175 ps=15.29 w=15 l=0.5
X7 a_1393_n1500# a_1293_n1597# a_1235_n1500# w_n7017_n1600# sky130_fd_pr__pfet_g5v0d10v5 ad=2.175 pd=15.29 as=2.175 ps=15.29 w=15 l=0.5
X8 a_4079_n1500# a_3979_n1597# a_3921_n1500# w_n7017_n1600# sky130_fd_pr__pfet_g5v0d10v5 ad=2.175 pd=15.29 as=2.175 ps=15.29 w=15 l=0.5
X9 a_n6665_n1500# a_n6765_n1597# a_n6823_n1500# w_n7017_n1600# sky130_fd_pr__pfet_g5v0d10v5 ad=2.175 pd=15.29 as=2.175 ps=15.29 w=15 l=0.5
X10 a_603_n1500# a_503_n1597# a_445_n1500# w_n7017_n1600# sky130_fd_pr__pfet_g5v0d10v5 ad=2.175 pd=15.29 as=2.175 ps=15.29 w=15 l=0.5
X11 a_1709_n1500# a_1609_n1597# a_1551_n1500# w_n7017_n1600# sky130_fd_pr__pfet_g5v0d10v5 ad=2.175 pd=15.29 as=2.175 ps=15.29 w=15 l=0.5
X12 a_n4927_n1500# a_n5027_n1597# a_n5085_n1500# w_n7017_n1600# sky130_fd_pr__pfet_g5v0d10v5 ad=2.175 pd=15.29 as=2.175 ps=15.29 w=15 l=0.5
X13 a_761_n1500# a_661_n1597# a_603_n1500# w_n7017_n1600# sky130_fd_pr__pfet_g5v0d10v5 ad=2.175 pd=15.29 as=2.175 ps=15.29 w=15 l=0.5
X14 a_6923_n1500# a_6823_n1597# a_6765_n1500# w_n7017_n1600# sky130_fd_pr__pfet_g5v0d10v5 ad=4.35 pd=30.58 as=2.175 ps=15.29 w=15 l=0.5
X15 a_n5085_n1500# a_n5185_n1597# a_n5243_n1500# w_n7017_n1600# sky130_fd_pr__pfet_g5v0d10v5 ad=2.175 pd=15.29 as=2.175 ps=15.29 w=15 l=0.5
X16 a_n4453_n1500# a_n4553_n1597# a_n4611_n1500# w_n7017_n1600# sky130_fd_pr__pfet_g5v0d10v5 ad=2.175 pd=15.29 as=2.175 ps=15.29 w=15 l=0.5
X17 a_n3821_n1500# a_n3921_n1597# a_n3979_n1500# w_n7017_n1600# sky130_fd_pr__pfet_g5v0d10v5 ad=2.175 pd=15.29 as=2.175 ps=15.29 w=15 l=0.5
X18 a_1867_n1500# a_1767_n1597# a_1709_n1500# w_n7017_n1600# sky130_fd_pr__pfet_g5v0d10v5 ad=2.175 pd=15.29 as=2.175 ps=15.29 w=15 l=0.5
X19 a_2499_n1500# a_2399_n1597# a_2341_n1500# w_n7017_n1600# sky130_fd_pr__pfet_g5v0d10v5 ad=2.175 pd=15.29 as=2.175 ps=15.29 w=15 l=0.5
X20 a_4711_n1500# a_4611_n1597# a_4553_n1500# w_n7017_n1600# sky130_fd_pr__pfet_g5v0d10v5 ad=2.175 pd=15.29 as=2.175 ps=15.29 w=15 l=0.5
X21 a_5343_n1500# a_5243_n1597# a_5185_n1500# w_n7017_n1600# sky130_fd_pr__pfet_g5v0d10v5 ad=2.175 pd=15.29 as=2.175 ps=15.29 w=15 l=0.5
X22 a_n2241_n1500# a_n2341_n1597# a_n2399_n1500# w_n7017_n1600# sky130_fd_pr__pfet_g5v0d10v5 ad=2.175 pd=15.29 as=2.175 ps=15.29 w=15 l=0.5
X23 a_n5559_n1500# a_n5659_n1597# a_n5717_n1500# w_n7017_n1600# sky130_fd_pr__pfet_g5v0d10v5 ad=2.175 pd=15.29 as=2.175 ps=15.29 w=15 l=0.5
X24 a_3131_n1500# a_3031_n1597# a_2973_n1500# w_n7017_n1600# sky130_fd_pr__pfet_g5v0d10v5 ad=2.175 pd=15.29 as=2.175 ps=15.29 w=15 l=0.5
X25 a_n503_n1500# a_n603_n1597# a_n661_n1500# w_n7017_n1600# sky130_fd_pr__pfet_g5v0d10v5 ad=2.175 pd=15.29 as=2.175 ps=15.29 w=15 l=0.5
X26 a_5817_n1500# a_5717_n1597# a_5659_n1500# w_n7017_n1600# sky130_fd_pr__pfet_g5v0d10v5 ad=2.175 pd=15.29 as=2.175 ps=15.29 w=15 l=0.5
X27 a_6449_n1500# a_6349_n1597# a_6291_n1500# w_n7017_n1600# sky130_fd_pr__pfet_g5v0d10v5 ad=2.175 pd=15.29 as=2.175 ps=15.29 w=15 l=0.5
X28 a_n3347_n1500# a_n3447_n1597# a_n3505_n1500# w_n7017_n1600# sky130_fd_pr__pfet_g5v0d10v5 ad=2.175 pd=15.29 as=2.175 ps=15.29 w=15 l=0.5
X29 a_n2715_n1500# a_n2815_n1597# a_n2873_n1500# w_n7017_n1600# sky130_fd_pr__pfet_g5v0d10v5 ad=2.175 pd=15.29 as=2.175 ps=15.29 w=15 l=0.5
X30 a_287_n1500# a_187_n1597# a_129_n1500# w_n7017_n1600# sky130_fd_pr__pfet_g5v0d10v5 ad=2.175 pd=15.29 as=2.175 ps=15.29 w=15 l=0.5
X31 a_5975_n1500# a_5875_n1597# a_5817_n1500# w_n7017_n1600# sky130_fd_pr__pfet_g5v0d10v5 ad=2.175 pd=15.29 as=2.175 ps=15.29 w=15 l=0.5
X32 a_n3979_n1500# a_n4079_n1597# a_n4137_n1500# w_n7017_n1600# sky130_fd_pr__pfet_g5v0d10v5 ad=2.175 pd=15.29 as=2.175 ps=15.29 w=15 l=0.5
X33 a_n2873_n1500# a_n2973_n1597# a_n3031_n1500# w_n7017_n1600# sky130_fd_pr__pfet_g5v0d10v5 ad=2.175 pd=15.29 as=2.175 ps=15.29 w=15 l=0.5
X34 a_n661_n1500# a_n761_n1597# a_n819_n1500# w_n7017_n1600# sky130_fd_pr__pfet_g5v0d10v5 ad=2.175 pd=15.29 as=2.175 ps=15.29 w=15 l=0.5
X35 a_3605_n1500# a_3505_n1597# a_3447_n1500# w_n7017_n1600# sky130_fd_pr__pfet_g5v0d10v5 ad=2.175 pd=15.29 as=2.175 ps=15.29 w=15 l=0.5
X36 a_4237_n1500# a_4137_n1597# a_4079_n1500# w_n7017_n1600# sky130_fd_pr__pfet_g5v0d10v5 ad=2.175 pd=15.29 as=2.175 ps=15.29 w=15 l=0.5
X37 a_n1135_n1500# a_n1235_n1597# a_n1293_n1500# w_n7017_n1600# sky130_fd_pr__pfet_g5v0d10v5 ad=2.175 pd=15.29 as=2.175 ps=15.29 w=15 l=0.5
X38 a_3763_n1500# a_3663_n1597# a_3605_n1500# w_n7017_n1600# sky130_fd_pr__pfet_g5v0d10v5 ad=2.175 pd=15.29 as=2.175 ps=15.29 w=15 l=0.5
X39 a_4395_n1500# a_4295_n1597# a_4237_n1500# w_n7017_n1600# sky130_fd_pr__pfet_g5v0d10v5 ad=2.175 pd=15.29 as=2.175 ps=15.29 w=15 l=0.5
X40 a_n1293_n1500# a_n1393_n1597# a_n1451_n1500# w_n7017_n1600# sky130_fd_pr__pfet_g5v0d10v5 ad=2.175 pd=15.29 as=2.175 ps=15.29 w=15 l=0.5
X41 a_n6823_n1500# a_n6923_n1597# a_n6981_n1500# w_n7017_n1600# sky130_fd_pr__pfet_g5v0d10v5 ad=2.175 pd=15.29 as=4.35 ps=30.58 w=15 l=0.5
X42 a_n1609_n1500# a_n1709_n1597# a_n1767_n1500# w_n7017_n1600# sky130_fd_pr__pfet_g5v0d10v5 ad=2.175 pd=15.29 as=2.175 ps=15.29 w=15 l=0.5
X43 a_n29_n1500# a_n129_n1597# a_n187_n1500# w_n7017_n1600# sky130_fd_pr__pfet_g5v0d10v5 ad=2.175 pd=15.29 as=2.175 ps=15.29 w=15 l=0.5
X44 a_1551_n1500# a_1451_n1597# a_1393_n1500# w_n7017_n1600# sky130_fd_pr__pfet_g5v0d10v5 ad=2.175 pd=15.29 as=2.175 ps=15.29 w=15 l=0.5
X45 a_2183_n1500# a_2083_n1597# a_2025_n1500# w_n7017_n1600# sky130_fd_pr__pfet_g5v0d10v5 ad=2.175 pd=15.29 as=2.175 ps=15.29 w=15 l=0.5
X46 a_4869_n1500# a_4769_n1597# a_4711_n1500# w_n7017_n1600# sky130_fd_pr__pfet_g5v0d10v5 ad=2.175 pd=15.29 as=2.175 ps=15.29 w=15 l=0.5
X47 a_n1767_n1500# a_n1867_n1597# a_n1925_n1500# w_n7017_n1600# sky130_fd_pr__pfet_g5v0d10v5 ad=2.175 pd=15.29 as=2.175 ps=15.29 w=15 l=0.5
X48 a_n187_n1500# a_n287_n1597# a_n345_n1500# w_n7017_n1600# sky130_fd_pr__pfet_g5v0d10v5 ad=2.175 pd=15.29 as=2.175 ps=15.29 w=15 l=0.5
X49 a_n4611_n1500# a_n4711_n1597# a_n4769_n1500# w_n7017_n1600# sky130_fd_pr__pfet_g5v0d10v5 ad=2.175 pd=15.29 as=2.175 ps=15.29 w=15 l=0.5
X50 a_n2399_n1500# a_n2499_n1597# a_n2557_n1500# w_n7017_n1600# sky130_fd_pr__pfet_g5v0d10v5 ad=2.175 pd=15.29 as=2.175 ps=15.29 w=15 l=0.5
X51 a_2025_n1500# a_1925_n1597# a_1867_n1500# w_n7017_n1600# sky130_fd_pr__pfet_g5v0d10v5 ad=2.175 pd=15.29 as=2.175 ps=15.29 w=15 l=0.5
X52 a_n5243_n1500# a_n5343_n1597# a_n5401_n1500# w_n7017_n1600# sky130_fd_pr__pfet_g5v0d10v5 ad=2.175 pd=15.29 as=2.175 ps=15.29 w=15 l=0.5
X53 a_2657_n1500# a_2557_n1597# a_2499_n1500# w_n7017_n1600# sky130_fd_pr__pfet_g5v0d10v5 ad=2.175 pd=15.29 as=2.175 ps=15.29 w=15 l=0.5
X54 a_3289_n1500# a_3189_n1597# a_3131_n1500# w_n7017_n1600# sky130_fd_pr__pfet_g5v0d10v5 ad=2.175 pd=15.29 as=2.175 ps=15.29 w=15 l=0.5
X55 a_5501_n1500# a_5401_n1597# a_5343_n1500# w_n7017_n1600# sky130_fd_pr__pfet_g5v0d10v5 ad=2.175 pd=15.29 as=2.175 ps=15.29 w=15 l=0.5
X56 a_6133_n1500# a_6033_n1597# a_5975_n1500# w_n7017_n1600# sky130_fd_pr__pfet_g5v0d10v5 ad=2.175 pd=15.29 as=2.175 ps=15.29 w=15 l=0.5
X57 a_n5717_n1500# a_n5817_n1597# a_n5875_n1500# w_n7017_n1600# sky130_fd_pr__pfet_g5v0d10v5 ad=2.175 pd=15.29 as=2.175 ps=15.29 w=15 l=0.5
X58 a_n3031_n1500# a_n3131_n1597# a_n3189_n1500# w_n7017_n1600# sky130_fd_pr__pfet_g5v0d10v5 ad=2.175 pd=15.29 as=2.175 ps=15.29 w=15 l=0.5
X59 a_129_n1500# a_29_n1597# a_n29_n1500# w_n7017_n1600# sky130_fd_pr__pfet_g5v0d10v5 ad=2.175 pd=15.29 as=2.175 ps=15.29 w=15 l=0.5
X60 a_n6349_n1500# a_n6449_n1597# a_n6507_n1500# w_n7017_n1600# sky130_fd_pr__pfet_g5v0d10v5 ad=2.175 pd=15.29 as=2.175 ps=15.29 w=15 l=0.5
X61 a_6291_n1500# a_6191_n1597# a_6133_n1500# w_n7017_n1600# sky130_fd_pr__pfet_g5v0d10v5 ad=2.175 pd=15.29 as=2.175 ps=15.29 w=15 l=0.5
X62 a_n5875_n1500# a_n5975_n1597# a_n6033_n1500# w_n7017_n1600# sky130_fd_pr__pfet_g5v0d10v5 ad=2.175 pd=15.29 as=2.175 ps=15.29 w=15 l=0.5
X63 a_445_n1500# a_345_n1597# a_287_n1500# w_n7017_n1600# sky130_fd_pr__pfet_g5v0d10v5 ad=2.175 pd=15.29 as=2.175 ps=15.29 w=15 l=0.5
X64 a_6607_n1500# a_6507_n1597# a_6449_n1500# w_n7017_n1600# sky130_fd_pr__pfet_g5v0d10v5 ad=2.175 pd=15.29 as=2.175 ps=15.29 w=15 l=0.5
X65 a_n4137_n1500# a_n4237_n1597# a_n4295_n1500# w_n7017_n1600# sky130_fd_pr__pfet_g5v0d10v5 ad=2.175 pd=15.29 as=2.175 ps=15.29 w=15 l=0.5
X66 a_n3505_n1500# a_n3605_n1597# a_n3663_n1500# w_n7017_n1600# sky130_fd_pr__pfet_g5v0d10v5 ad=2.175 pd=15.29 as=2.175 ps=15.29 w=15 l=0.5
X67 a_6765_n1500# a_6665_n1597# a_6607_n1500# w_n7017_n1600# sky130_fd_pr__pfet_g5v0d10v5 ad=2.175 pd=15.29 as=2.175 ps=15.29 w=15 l=0.5
X68 a_n3663_n1500# a_n3763_n1597# a_n3821_n1500# w_n7017_n1600# sky130_fd_pr__pfet_g5v0d10v5 ad=2.175 pd=15.29 as=2.175 ps=15.29 w=15 l=0.5
X69 a_n4295_n1500# a_n4395_n1597# a_n4453_n1500# w_n7017_n1600# sky130_fd_pr__pfet_g5v0d10v5 ad=2.175 pd=15.29 as=2.175 ps=15.29 w=15 l=0.5
X70 a_n1925_n1500# a_n2025_n1597# a_n2083_n1500# w_n7017_n1600# sky130_fd_pr__pfet_g5v0d10v5 ad=2.175 pd=15.29 as=2.175 ps=15.29 w=15 l=0.5
X71 a_919_n1500# a_819_n1597# a_761_n1500# w_n7017_n1600# sky130_fd_pr__pfet_g5v0d10v5 ad=2.175 pd=15.29 as=2.175 ps=15.29 w=15 l=0.5
X72 a_3921_n1500# a_3821_n1597# a_3763_n1500# w_n7017_n1600# sky130_fd_pr__pfet_g5v0d10v5 ad=2.175 pd=15.29 as=2.175 ps=15.29 w=15 l=0.5
X73 a_4553_n1500# a_4453_n1597# a_4395_n1500# w_n7017_n1600# sky130_fd_pr__pfet_g5v0d10v5 ad=2.175 pd=15.29 as=2.175 ps=15.29 w=15 l=0.5
X74 a_n1451_n1500# a_n1551_n1597# a_n1609_n1500# w_n7017_n1600# sky130_fd_pr__pfet_g5v0d10v5 ad=2.175 pd=15.29 as=2.175 ps=15.29 w=15 l=0.5
X75 a_1077_n1500# a_977_n1597# a_919_n1500# w_n7017_n1600# sky130_fd_pr__pfet_g5v0d10v5 ad=2.175 pd=15.29 as=2.175 ps=15.29 w=15 l=0.5
X76 a_5185_n1500# a_5085_n1597# a_5027_n1500# w_n7017_n1600# sky130_fd_pr__pfet_g5v0d10v5 ad=2.175 pd=15.29 as=2.175 ps=15.29 w=15 l=0.5
X77 a_n4769_n1500# a_n4869_n1597# a_n4927_n1500# w_n7017_n1600# sky130_fd_pr__pfet_g5v0d10v5 ad=2.175 pd=15.29 as=2.175 ps=15.29 w=15 l=0.5
X78 a_n2083_n1500# a_n2183_n1597# a_n2241_n1500# w_n7017_n1600# sky130_fd_pr__pfet_g5v0d10v5 ad=2.175 pd=15.29 as=2.175 ps=15.29 w=15 l=0.5
X79 a_2341_n1500# a_2241_n1597# a_2183_n1500# w_n7017_n1600# sky130_fd_pr__pfet_g5v0d10v5 ad=2.175 pd=15.29 as=2.175 ps=15.29 w=15 l=0.5
X80 a_5027_n1500# a_4927_n1597# a_4869_n1500# w_n7017_n1600# sky130_fd_pr__pfet_g5v0d10v5 ad=2.175 pd=15.29 as=2.175 ps=15.29 w=15 l=0.5
X81 a_5659_n1500# a_5559_n1597# a_5501_n1500# w_n7017_n1600# sky130_fd_pr__pfet_g5v0d10v5 ad=2.175 pd=15.29 as=2.175 ps=15.29 w=15 l=0.5
X82 a_n2557_n1500# a_n2657_n1597# a_n2715_n1500# w_n7017_n1600# sky130_fd_pr__pfet_g5v0d10v5 ad=2.175 pd=15.29 as=2.175 ps=15.29 w=15 l=0.5
X83 a_n345_n1500# a_n445_n1597# a_n503_n1500# w_n7017_n1600# sky130_fd_pr__pfet_g5v0d10v5 ad=2.175 pd=15.29 as=2.175 ps=15.29 w=15 l=0.5
X84 a_n5401_n1500# a_n5501_n1597# a_n5559_n1500# w_n7017_n1600# sky130_fd_pr__pfet_g5v0d10v5 ad=2.175 pd=15.29 as=2.175 ps=15.29 w=15 l=0.5
X85 a_n3189_n1500# a_n3289_n1597# a_n3347_n1500# w_n7017_n1600# sky130_fd_pr__pfet_g5v0d10v5 ad=2.175 pd=15.29 as=2.175 ps=15.29 w=15 l=0.5
X86 a_2815_n1500# a_2715_n1597# a_2657_n1500# w_n7017_n1600# sky130_fd_pr__pfet_g5v0d10v5 ad=2.175 pd=15.29 as=2.175 ps=15.29 w=15 l=0.5
X87 a_3447_n1500# a_3347_n1597# a_3289_n1500# w_n7017_n1600# sky130_fd_pr__pfet_g5v0d10v5 ad=2.175 pd=15.29 as=2.175 ps=15.29 w=15 l=0.5
.ends

.subckt sky130_fd_pr__pfet_g5v0d10v5_RTDP6L a_n29_n400# w_n381_n500# a_n187_n400#
+ a_n345_n400# a_29_n497# a_n129_n497# a_187_n497# a_129_n400# a_n287_n497# a_287_n400#
X0 a_n29_n400# a_n129_n497# a_n187_n400# w_n381_n500# sky130_fd_pr__pfet_g5v0d10v5 ad=0.58 pd=4.29 as=0.58 ps=4.29 w=4 l=0.5
X1 a_n187_n400# a_n287_n497# a_n345_n400# w_n381_n500# sky130_fd_pr__pfet_g5v0d10v5 ad=0.58 pd=4.29 as=1.16 ps=8.58 w=4 l=0.5
X2 a_287_n400# a_187_n497# a_129_n400# w_n381_n500# sky130_fd_pr__pfet_g5v0d10v5 ad=1.16 pd=8.58 as=0.58 ps=4.29 w=4 l=0.5
X3 a_129_n400# a_29_n497# a_n29_n400# w_n381_n500# sky130_fd_pr__pfet_g5v0d10v5 ad=0.58 pd=4.29 as=0.58 ps=4.29 w=4 l=0.5
.ends

.subckt gate_drive in_m in_p out vdd vss
Xxm1 vss vss vss li_n2466_n1927# out li_n5626_n1927# li_n2466_n1927# out out out li_n2466_n1927#
+ li_n5626_n1927# vss vss li_n2466_n1927# vss vss li_n2466_n1927# out li_n2466_n1927#
+ vss li_n2466_n1927# li_n5626_n1927# out out li_n2466_n1927# li_n2466_n1927# out
+ out li_n2466_n1927# li_n2466_n1927# li_n5626_n1927# vss li_n6574_n1927# vss vss
+ li_n2466_n1927# li_n2466_n1927# li_n5626_n1927# li_n5626_n1927# vss out out li_n2466_n1927#