** sch_path: /home/tim/gits/chipalooza_projects_redef/xschem/user_analog_project_wrapper.sch
.subckt user_analog_project_wrapper vdda1 vdda2 vssa1 vssa2 vccd1 vccd2 vssd1 vssd2 wb_clk_i wb_rst_i wbs_stb_i wbs_cyc_i wbs_we_i
+ wbs_sel_i[3] wbs_sel_i[2] wbs_sel_i[1] wbs_sel_i[0] wbs_dat_i[31] wbs_dat_i[30] wbs_dat_i[29] wbs_dat_i[28] wbs_dat_i[27] wbs_dat_i[26]
+ wbs_dat_i[25] wbs_dat_i[24] wbs_dat_i[23] wbs_dat_i[22] wbs_dat_i[21] wbs_dat_i[20] wbs_dat_i[19] wbs_dat_i[18] wbs_dat_i[17] wbs_dat_i[16]
+ wbs_dat_i[15] wbs_dat_i[14] wbs_dat_i[13] wbs_dat_i[12] wbs_dat_i[11] wbs_dat_i[10] wbs_dat_i[9] wbs_dat_i[8] wbs_dat_i[7] wbs_dat_i[6]
+ wbs_dat_i[5] wbs_dat_i[4] wbs_dat_i[3] wbs_dat_i[2] wbs_dat_i[1] wbs_dat_i[0] wbs_adr_i[31] wbs_adr_i[30] wbs_adr_i[29] wbs_adr_i[28]
+ wbs_adr_i[27] wbs_adr_i[26] wbs_adr_i[25] wbs_adr_i[24] wbs_adr_i[23] wbs_adr_i[22] wbs_adr_i[21] wbs_adr_i[20] wbs_adr_i[19] wbs_adr_i[18]
+ wbs_adr_i[17] wbs_adr_i[16] wbs_adr_i[15] wbs_adr_i[14] wbs_adr_i[13] wbs_adr_i[12] wbs_adr_i[11] wbs_adr_i[10] wbs_adr_i[9] wbs_adr_i[8]
+ wbs_adr_i[7] wbs_adr_i[6] wbs_adr_i[5] wbs_adr_i[4] wbs_adr_i[3] wbs_adr_i[2] wbs_adr_i[1] wbs_adr_i[0] wbs_ack_o wbs_dat_o[31] wbs_dat_o[30]
+ wbs_dat_o[29] wbs_dat_o[28] wbs_dat_o[27] wbs_dat_o[26] wbs_dat_o[25] wbs_dat_o[24] wbs_dat_o[23] wbs_dat_o[22] wbs_dat_o[21] wbs_dat_o[20]
+ wbs_dat_o[19] wbs_dat_o[18] wbs_dat_o[17] wbs_dat_o[16] wbs_dat_o[15] wbs_dat_o[14] wbs_dat_o[13] wbs_dat_o[12] wbs_dat_o[11] wbs_dat_o[10]
+ wbs_dat_o[9] wbs_dat_o[8] wbs_dat_o[7] wbs_dat_o[6] wbs_dat_o[5] wbs_dat_o[4] wbs_dat_o[3] wbs_dat_o[2] wbs_dat_o[1] wbs_dat_o[0]
+ la_data_in[127] la_data_in[126] la_data_in[125] la_data_in[124] la_data_in[123] la_data_in[122] la_data_in[121] la_data_in[120] la_data_in[119]
+ la_data_in[118] la_data_in[117] la_data_in[116] la_data_in[115] la_data_in[114] la_data_in[113] la_data_in[112] la_data_in[111] la_data_in[110]
+ la_data_in[109] la_data_in[108] la_data_in[107] la_data_in[106] la_data_in[105] la_data_in[104] la_data_in[103] la_data_in[102] la_data_in[101]
+ la_data_in[100] la_data_in[99] la_data_in[98] la_data_in[97] la_data_in[96] la_data_in[95] la_data_in[94] la_data_in[93] la_data_in[92]
+ la_data_in[91] la_data_in[90] la_data_in[89] la_data_in[88] la_data_in[87] la_data_in[86] la_data_in[85] la_data_in[84] la_data_in[83]
+ la_data_in[82] la_data_in[81] la_data_in[80] la_data_in[79] la_data_in[78] la_data_in[77] la_data_in[76] la_data_in[75] la_data_in[74]
+ la_data_in[73] la_data_in[72] la_data_in[71] la_data_in[70] la_data_in[69] la_data_in[68] la_data_in[67] la_data_in[66] la_data_in[65]
+ la_data_in[64] la_data_in[63] la_data_in[62] la_data_in[61] la_data_in[60] la_data_in[59] la_data_in[58] la_data_in[57] la_data_in[56]
+ la_data_in[55] la_data_in[54] la_data_in[53] la_data_in[52] la_data_in[51] la_data_in[50] la_data_in[49] la_data_in[48] la_data_in[47]
+ la_data_in[46] la_data_in[45] la_data_in[44] la_data_in[43] la_data_in[42] la_data_in[41] la_data_in[40] la_data_in[39] la_data_in[38]
+ la_data_in[37] la_data_in[36] la_data_in[35] la_data_in[34] la_data_in[33] la_data_in[32] la_data_in[31] la_data_in[30] la_data_in[29]
+ la_data_in[28] la_data_in[27] la_data_in[26] la_data_in[25] la_data_in[24] la_data_in[23] la_data_in[22] la_data_in[21] la_data_in[20]
+ la_data_in[19] la_data_in[18] la_data_in[17] la_data_in[16] la_data_in[15] la_data_in[14] la_data_in[13] la_data_in[12] la_data_in[11]
+ la_data_in[10] la_data_in[9] la_data_in[8] la_data_in[7] la_data_in[6] la_data_in[5] la_data_in[4] la_data_in[3] la_data_in[2] la_data_in[1]
+ la_data_in[0] la_data_out[127] la_data_out[126] la_data_out[125] la_data_out[124] la_data_out[123] la_data_out[122] la_data_out[121]
+ la_data_out[120] la_data_out[119] la_data_out[118] la_data_out[117] la_data_out[116] la_data_out[115] la_data_out[114] la_data_out[113]
+ la_data_out[112] la_data_out[111] la_data_out[110] la_data_out[109] la_data_out[108] la_data_out[107] la_data_out[106] la_data_out[105]
+ la_data_out[104] la_data_out[103] la_data_out[102] la_data_out[101] la_data_out[100] la_data_out[99] la_data_out[98] la_data_out[97]
+ la_data_out[96] la_data_out[95] la_data_out[94] la_data_out[93] la_data_out[92] la_data_out[91] la_data_out[90] la_data_out[89] la_data_out[88]
+ la_data_out[87] la_data_out[86] la_data_out[85] la_data_out[84] la_data_out[83] la_data_out[82] la_data_out[81] la_data_out[80] la_data_out[79]
+ la_data_out[78] la_data_out[77] la_data_out[76] la_data_out[75] la_data_out[74] la_data_out[73] la_data_out[72] la_data_out[71] la_data_out[70]
+ la_data_out[69] la_data_out[68] la_data_out[67] la_data_out[66] la_data_out[65] la_data_out[64] la_data_out[63] la_data_out[62] la_data_out[61]
+ la_data_out[60] la_data_out[59] la_data_out[58] la_data_out[57] la_data_out[56] la_data_out[55] la_data_out[54] la_data_out[53] la_data_out[52]
+ la_data_out[51] la_data_out[50] la_data_out[49] la_data_out[48] la_data_out[47] la_data_out[46] la_data_out[45] la_data_out[44] la_data_out[43]
+ la_data_out[42] la_data_out[41] la_data_out[40] la_data_out[39] la_data_out[38] la_data_out[37] la_data_out[36] la_data_out[35] la_data_out[34]
+ la_data_out[33] la_data_out[32] la_data_out[31] la_data_out[30] la_data_out[29] la_data_out[28] la_data_out[27] la_data_out[26] la_data_out[25]
+ la_data_out[24] la_data_out[23] la_data_out[22] la_data_out[21] la_data_out[20] la_data_out[19] la_data_out[18] la_data_out[17] la_data_out[16]
+ la_data_out[15] la_data_out[14] la_data_out[13] la_data_out[12] la_data_out[11] la_data_out[10] la_data_out[9] la_data_out[8] la_data_out[7]
+ la_data_out[6] la_data_out[5] la_data_out[4] la_data_out[3] la_data_out[2] la_data_out[1] la_data_out[0] la_oenb[127] la_oenb[126] la_oenb[125]
+ la_oenb[124] la_oenb[123] la_oenb[122] la_oenb[121] la_oenb[120] la_oenb[119] la_oenb[118] la_oenb[117] la_oenb[116] la_oenb[115] la_oenb[114]
+ la_oenb[113] la_oenb[112] la_oenb[111] la_oenb[110] la_oenb[109] la_oenb[108] la_oenb[107] la_oenb[106] la_oenb[105] la_oenb[104] la_oenb[103]
+ la_oenb[102] la_oenb[101] la_oenb[100] la_oenb[99] la_oenb[98] la_oenb[97] la_oenb[96] la_oenb[95] la_oenb[94] la_oenb[93] la_oenb[92]
+ la_oenb[91] la_oenb[90] la_oenb[89] la_oenb[88] la_oenb[87] la_oenb[86] la_oenb[85] la_oenb[84] la_oenb[83] la_oenb[82] la_oenb[81]
+ la_oenb[80] la_oenb[79] la_oenb[78] la_oenb[77] la_oenb[76] la_oenb[75] la_oenb[74] la_oenb[73] la_oenb[72] la_oenb[71] la_oenb[70]
+ la_oenb[69] la_oenb[68] la_oenb[67] la_oenb[66] la_oenb[65] la_oenb[64] la_oenb[63] la_oenb[62] la_oenb[61] la_oenb[60] la_oenb[59]
+ la_oenb[58] la_oenb[57] la_oenb[56] la_oenb[55] la_oenb[54] la_oenb[53] la_oenb[52] la_oenb[51] la_oenb[50] la_oenb[49] la_oenb[48]
+ la_oenb[47] la_oenb[46] la_oenb[45] la_oenb[44] la_oenb[43] la_oenb[42] la_oenb[41] la_oenb[40] la_oenb[39] la_oenb[38] la_oenb[37]
+ la_oenb[36] la_oenb[35] la_oenb[34] la_oenb[33] la_oenb[32] la_oenb[31] la_oenb[30] la_oenb[29] la_oenb[28] la_oenb[27] la_oenb[26]
+ la_oenb[25] la_oenb[24] la_oenb[23] la_oenb[22] la_oenb[21] la_oenb[20] la_oenb[19] la_oenb[18] la_oenb[17] la_oenb[16] la_oenb[15]
+ la_oenb[14] la_oenb[13] la_oenb[12] la_oenb[11] la_oenb[10] la_oenb[9] la_oenb[8] la_oenb[7] la_oenb[6] la_oenb[5] la_oenb[4] la_oenb[3]
+ la_oenb[2] la_oenb[1] la_oenb[0] io_in[26] io_in[25] io_in[24] io_in[23] io_in[22] io_in[21] io_in[20] io_in[19] io_in[18] io_in[17]
+ io_in[16] io_in[15] io_in[14] io_in[13] io_in[12] io_in[11] io_in[10] io_in[9] io_in[8] io_in[7] io_in[6] io_in[5] io_in[4] io_in[3]
+ io_in[2] io_in[1] io_in[0] io_in_3v3[26] io_in_3v3[25] io_in_3v3[24] io_in_3v3[23] io_in_3v3[22] io_in_3v3[21] io_in_3v3[20] io_in_3v3[19]
+ io_in_3v3[18] io_in_3v3[17] io_in_3v3[16] io_in_3v3[15] io_in_3v3[14] io_in_3v3[13] io_in_3v3[12] io_in_3v3[11] io_in_3v3[10] io_in_3v3[9]
+ io_in_3v3[8] io_in_3v3[7] io_in_3v3[6] io_in_3v3[5] io_in_3v3[4] io_in_3v3[3] io_in_3v3[2] io_in_3v3[1] io_in_3v3[0] io_out[26] io_out[25]
+ io_out[24] io_out[23] io_out[22] io_out[21] io_out[20] io_out[19] io_out[18] io_out[17] io_out[16] io_out[15] io_out[14] io_out[13]
+ io_out[12] io_out[11] io_out[10] io_out[9] io_out[8] io_out[7] io_out[6] io_out[5] io_out[4] io_out[3] io_out[2] io_out[1] io_out[0]
+ io_oeb[26] io_oeb[25] io_oeb[24] io_oeb[23] io_oeb[22] io_oeb[21] io_oeb[20] io_oeb[19] io_oeb[18] io_oeb[17] io_oeb[16] io_oeb[15]
+ io_oeb[14] io_oeb[13] io_oeb[12] io_oeb[11] io_oeb[10] io_oeb[9] io_oeb[8] io_oeb[7] io_oeb[6] io_oeb[5] io_oeb[4] io_oeb[3] io_oeb[2]
+ io_oeb[1] io_oeb[0] gpio_analog[17] gpio_analog[16] gpio_analog[15] gpio_analog[14] gpio_analog[13] gpio_analog[12] gpio_analog[11]
+ gpio_analog[10] gpio_analog[9] gpio_analog[8] gpio_analog[7] gpio_analog[6] gpio_analog[5] gpio_analog[4] gpio_analog[3] gpio_analog[2]
+ gpio_analog[1] gpio_analog[0] gpio_noesd[17] gpio_noesd[16] gpio_noesd[15] gpio_noesd[14] gpio_noesd[13] gpio_noesd[12] gpio_noesd[11]
+ gpio_noesd[10] gpio_noesd[9] gpio_noesd[8] gpio_noesd[7] gpio_noesd[6] gpio_noesd[5] gpio_noesd[4] gpio_noesd[3] gpio_noesd[2] gpio_noesd[1]
+ gpio_noesd[0] io_analog[10] io_analog[9] io_analog[8] io_analog[7] io_analog[6] io_analog[5] io_analog[4] io_analog[3] io_analog[2]
+ io_analog[1] io_analog[0] io_clamp_high[2] io_clamp_high[1] io_clamp_high[0] io_clamp_low[2] io_clamp_low[1] io_clamp_low[0] user_clock2
+ user_irq[2] user_irq[1] user_irq[0]
*.PININFO vdda1:B vdda2:B vssa1:B vssa2:B vccd1:B vccd2:B vssd1:B vssd2:B wb_clk_i:I wb_rst_i:I wbs_stb_i:I wbs_cyc_i:I wbs_we_i:I
*+ wbs_sel_i[3:0]:I wbs_dat_i[31:0]:I wbs_adr_i[31:0]:I wbs_ack_o:O wbs_dat_o[31:0]:O la_data_in[127:0]:I la_data_out[127:0]:O io_in[26:0]:I
*+ io_in_3v3[26:0]:I user_clock2:I io_out[26:0]:O io_oeb[26:0]:O gpio_analog[17:0]:B gpio_noesd[17:0]:B io_analog[10:0]:B io_clamp_high[2:0]:B
*+ io_clamp_low[2:0]:B user_irq[2:0]:O la_oenb[127:0]:I
x1 vccd1 vccd2 vdda1 vdda2 vssa1 vssa2 io_oeb[26] io_oeb[25] io_oeb[24] io_oeb[23] io_oeb[22] io_oeb[21] io_oeb[20] io_oeb[19]
+ io_oeb[18] io_oeb[17] io_oeb[16] io_oeb[15] io_oeb[14] io_oeb[13] io_oeb[12] io_oeb[11] io_oeb[10] io_oeb[9] io_oeb[8] io_oeb[7] io_oeb[6]
+ io_oeb[5] io_oeb[4] io_oeb[3] io_oeb[2] io_oeb[1] io_oeb[0] io_out[26] io_out[25] io_out[24] io_out[23] io_out[22] io_out[21] io_out[20]
+ io_out[19] io_out[18] io_out[17] io_out[16] io_out[15] io_out[14] io_out[13] io_out[12] io_out[11] io_out[10] io_out[9] io_out[8] io_out[7]
+ io_out[6] io_out[5] io_out[4] io_out[3] io_out[2] io_out[1] io_out[0] gpio_noesd[17] gpio_noesd[16] gpio_noesd[15] gpio_noesd[14]
+ gpio_noesd[13] gpio_noesd[12] gpio_noesd[11] gpio_noesd[10] gpio_noesd[9] gpio_noesd[8] gpio_noesd[7] gpio_noesd[6] gpio_noesd[5] gpio_noesd[4]
+ gpio_noesd[3] gpio_noesd[2] gpio_noesd[1] gpio_noesd[0] gpio_analog[17] gpio_analog[16] gpio_analog[15] gpio_analog[14] gpio_analog[13]
+ gpio_analog[12] gpio_analog[11] gpio_analog[10] gpio_analog[9] gpio_analog[8] gpio_analog[7] gpio_analog[6] gpio_analog[5] gpio_analog[4]
+ gpio_analog[3] gpio_analog[2] gpio_analog[1] gpio_analog[0] io_analog[10] io_analog[9] io_analog[8] io_analog[7] io_analog[6] io_analog[5]
+ io_analog[4] io_analog[3] io_analog[2] io_analog[1] io_analog[0] la_data_out[127] la_data_out[126] la_data_out[125] la_data_out[124]
+ la_data_out[123] la_data_out[122] la_data_out[121] la_data_out[120] la_data_out[119] la_data_out[118] la_data_out[117] la_data_out[116]
+ la_data_out[115] la_data_out[114] la_data_out[113] la_data_out[112] la_data_out[111] la_data_out[110] la_data_out[109] la_data_out[108]
+ la_data_out[107] la_data_out[106] la_data_out[105] la_data_out[104] la_data_out[103] la_data_out[102] la_data_out[101] la_data_out[100]
+ la_data_out[99] la_data_out[98] la_data_out[97] la_data_out[96] la_data_out[95] la_data_out[94] la_data_out[93] la_data_out[92] la_data_out[91]
+ la_data_out[90] la_data_out[89] la_data_out[88] la_data_out[87] la_data_out[86] la_data_out[85] la_data_out[84] la_data_out[83] la_data_out[82]
+ la_data_out[81] la_data_out[80] la_data_out[79] la_data_out[78] la_data_out[77] la_data_out[76] la_data_out[75] la_data_out[74] la_data_out[73]
+ la_data_out[72] la_data_out[71] la_data_out[70] la_data_out[69] la_data_out[68] la_data_out[67] la_data_out[66] la_data_out[65] la_data_out[64]
+ la_data_out[63] la_data_out[62] la_data_out[61] la_data_out[60] la_data_out[59] la_data_out[58] la_data_out[57] la_data_out[56] la_data_out[55]
+ la_data_out[54] la_data_out[53] la_data_out[52] la_data_out[51] la_data_out[50] la_data_out[49] la_data_out[48] la_data_out[47] la_data_out[46]
+ la_data_out[45] la_data_out[44] la_data_out[43] la_data_out[42] la_data_out[41] la_data_out[40] la_data_out[39] la_data_out[38] la_data_out[37]
+ la_data_out[36] la_data_out[35] la_data_out[34] la_data_out[33] la_data_out[32] la_data_out[31] la_data_out[30] la_data_out[29] la_data_out[28]
+ la_data_out[27] la_data_out[26] la_data_out[25] la_data_out[24] la_data_out[23] la_data_out[22] la_data_out[21] la_data_out[20] la_data_out[19]
+ la_data_out[18] la_data_out[17] la_data_out[16] la_data_out[15] la_data_out[14] la_data_out[13] la_data_out[12] la_data_out[11] la_data_out[10]
+ la_data_out[9] la_data_out[8] la_data_out[7] la_data_out[6] la_data_out[5] la_data_out[4] la_data_out[3] la_data_out[2] la_data_out[1]
+ la_data_out[0] la_data_in[127] la_data_in[126] la_data_in[125] la_data_in[124] la_data_in[123] la_data_in[122] la_data_in[121] la_data_in[120]
+ la_data_in[119] la_data_in[118] la_data_in[117] la_data_in[116] la_data_in[115] la_data_in[114] la_data_in[113] la_data_in[112] la_data_in[111]
+ la_data_in[110] la_data_in[109] la_data_in[108] la_data_in[107] la_data_in[106] la_data_in[105] la_data_in[104] la_data_in[103] la_data_in[102]
+ la_data_in[101] la_data_in[100] la_data_in[99] la_data_in[98] la_data_in[97] la_data_in[96] la_data_in[95] la_data_in[94] la_data_in[93]
+ la_data_in[92] la_data_in[91] la_data_in[90] la_data_in[89] la_data_in[88] la_data_in[87] la_data_in[86] la_data_in[85] la_data_in[84]
+ la_data_in[83] la_data_in[82] la_data_in[81] la_data_in[80] la_data_in[79] la_data_in[78] la_data_in[77] la_data_in[76] la_data_in[75]
+ la_data_in[74] la_data_in[73] la_data_in[72] la_data_in[71] la_data_in[70] la_data_in[69] la_data_in[68] la_data_in[67] la_data_in[66]
+ la_data_in[65] la_data_in[64] la_data_in[63] la_data_in[62] la_data_in[61] la_data_in[60] la_data_in[59] la_data_in[58] la_data_in[57]
+ la_data_in[56] la_data_in[55] la_data_in[54] la_data_in[53] la_data_in[52] la_data_in[51] la_data_in[50] la_data_in[49] la_data_in[48]
+ la_data_in[47] la_data_in[46] la_data_in[45] la_data_in[44] la_data_in[43] la_data_in[42] la_data_in[41] la_data_in[40] la_data_in[39]
+ la_data_in[38] la_data_in[37] la_data_in[36] la_data_in[35] la_data_in[34] la_data_in[33] la_data_in[32] la_data_in[31] la_data_in[30]
+ la_data_in[29] la_data_in[28] la_data_in[27] la_data_in[26] la_data_in[25] la_data_in[24] la_data_in[23] la_data_in[22] la_data_in[21]
+ la_data_in[20] la_data_in[19] la_data_in[18] la_data_in[17] la_data_in[16] la_data_in[15] la_data_in[14] la_data_in[13] la_data_in[12]
+ la_data_in[11] la_data_in[10] la_data_in[9] la_data_in[8] la_data_in[7] la_data_in[6] la_data_in[5] la_data_in[4] la_data_in[3] la_data_in[2]
+ la_data_in[1] la_data_in[0] vssd2 vssd1 chipalooza_testchip1
.ends

* expanding   symbol:  chipalooza_testchip1.sym # of pins=15
** sym_path: /home/tim/gits/chipalooza_projects_redef/xschem/chipalooza_testchip1.sym
** sch_path: /home/tim/gits/chipalooza_projects_redef/xschem/chipalooza_testchip1.sch
.subckt chipalooza_testchip1 vccd1 vccd2 vdda1 vdda2 vssa1 vssa2 io_oeb[26] io_oeb[25] io_oeb[24] io_oeb[23] io_oeb[22] io_oeb[21]
+ io_oeb[20] io_oeb[19] io_oeb[18] io_oeb[17] io_oeb[16] io_oeb[15] io_oeb[14] io_oeb[13] io_oeb[12] io_oeb[11] io_oeb[10] io_oeb[9] io_oeb[8]
+ io_oeb[7] io_oeb[6] io_oeb[5] io_oeb[4] io_oeb[3] io_oeb[2] io_oeb[1] io_oeb[0] io_out[26] io_out[25] io_out[24] io_out[23] io_out[22]
+ io_out[21] io_out[20] io_out[19] io_out[18] io_out[17] io_out[16] io_out[15] io_out[14] io_out[13] io_out[12] io_out[11] io_out[10]
+ io_out[9] io_out[8] io_out[7] io_out[6] io_out[5] io_out[4] io_out[3] io_out[2] io_out[1] io_out[0] gpio_noesd[17] gpio_noesd[16]
+ gpio_noesd[15] gpio_noesd[14] gpio_noesd[13] gpio_noesd[12] gpio_noesd[11] gpio_noesd[10] gpio_noesd[9] gpio_noesd[8] gpio_noesd[7]
+ gpio_noesd[6] gpio_noesd[5] gpio_noesd[4] gpio_noesd[3] gpio_noesd[2] gpio_noesd[1] gpio_noesd[0] gpio_analog[17] gpio_analog[16]
+ gpio_analog[15] gpio_analog[14] gpio_analog[13] gpio_analog[12] gpio_analog[11] gpio_analog[10] gpio_analog[9] gpio_analog[8] gpio_analog[7]
+ gpio_analog[6] gpio_analog[5] gpio_analog[4] gpio_analog[3] gpio_analog[2] gpio_analog[1] gpio_analog[0] io_analog[10] io_analog[9] io_analog[8]
+ io_analog[7] io_analog[6] io_analog[5] io_analog[4] io_analog[3] io_analog[2] io_analog[1] io_analog[0] la_data_out[127] la_data_out[126]
+ la_data_out[125] la_data_out[124] la_data_out[123] la_data_out[122] la_data_out[121] la_data_out[120] la_data_out[119] la_data_out[118]
+ la_data_out[117] la_data_out[116] la_data_out[115] la_data_out[114] la_data_out[113] la_data_out[112] la_data_out[111] la_data_out[110]
+ la_data_out[109] la_data_out[108] la_data_out[107] la_data_out[106] la_data_out[105] la_data_out[104] la_data_out[103] la_data_out[102]
+ la_data_out[101] la_data_out[100] la_data_out[99] la_data_out[98] la_data_out[97] la_data_out[96] la_data_out[95] la_data_out[94] la_data_out[93]
+ la_data_out[92] la_data_out[91] la_data_out[90] la_data_out[89] la_data_out[88] la_data_out[87] la_data_out[86] la_data_out[85] la_data_out[84]
+ la_data_out[83] la_data_out[82] la_data_out[81] la_data_out[80] la_data_out[79] la_data_out[78] la_data_out[77] la_data_out[76] la_data_out[75]
+ la_data_out[74] la_data_out[73] la_data_out[72] la_data_out[71] la_data_out[70] la_data_out[69] la_data_out[68] la_data_out[67] la_data_out[66]
+ la_data_out[65] la_data_out[64] la_data_out[63] la_data_out[62] la_data_out[61] la_data_out[60] la_data_out[59] la_data_out[58] la_data_out[57]
+ la_data_out[56] la_data_out[55] la_data_out[54] la_data_out[53] la_data_out[52] la_data_out[51] la_data_out[50] la_data_out[49] la_data_out[48]
+ la_data_out[47] la_data_out[46] la_data_out[45] la_data_out[44] la_data_out[43] la_data_out[42] la_data_out[41] la_data_out[40] la_data_out[39]
+ la_data_out[38] la_data_out[37] la_data_out[36] la_data_out[35] la_data_out[34] la_data_out[33] la_data_out[32] la_data_out[31] la_data_out[30]
+ la_data_out[29] la_data_out[28] la_data_out[27] la_data_out[26] la_data_out[25] la_data_out[24] la_data_out[23] la_data_out[22] la_data_out[21]
+ la_data_out[20] la_data_out[19] la_data_out[18] la_data_out[17] la_data_out[16] la_data_out[15] la_data_out[14] la_data_out[13] la_data_out[12]
+ la_data_out[11] la_data_out[10] la_data_out[9] la_data_out[8] la_data_out[7] la_data_out[6] la_data_out[5] la_data_out[4] la_data_out[3]
+ la_data_out[2] la_data_out[1] la_data_out[0] la_data_in[127] la_data_in[126] la_data_in[125] la_data_in[124] la_data_in[123] la_data_in[122]
+ la_data_in[121] la_data_in[120] la_data_in[119] la_data_in[118] la_data_in[117] la_data_in[116] la_data_in[115] la_data_in[114] la_data_in[113]
+ la_data_in[112] la_data_in[111] la_data_in[110] la_data_in[109] la_data_in[108] la_data_in[107] la_data_in[106] la_data_in[105] la_data_in[104]
+ la_data_in[103] la_data_in[102] la_data_in[101] la_data_in[100] la_data_in[99] la_data_in[98] la_data_in[97] la_data_in[96] la_data_in[95]
+ la_data_in[94] la_data_in[93] la_data_in[92] la_data_in[91] la_data_in[90] la_data_in[89] la_data_in[88] la_data_in[87] la_data_in[86]
+ la_data_in[85] la_data_in[84] la_data_in[83] la_data_in[82] la_data_in[81] la_data_in[80] la_data_in[79] la_data_in[78] la_data_in[77]
+ la_data_in[76] la_data_in[75] la_data_in[74] la_data_in[73] la_data_in[72] la_data_in[71] la_data_in[70] la_data_in[69] la_data_in[68]
+ la_data_in[67] la_data_in[66] la_data_in[65] la_data_in[64] la_data_in[63] la_data_in[62] la_data_in[61] la_data_in[60] la_data_in[59]
+ la_data_in[58] la_data_in[57] la_data_in[56] la_data_in[55] la_data_in[54] la_data_in[53] la_data_in[52] la_data_in[51] la_data_in[50]
+ la_data_in[49] la_data_in[48] la_data_in[47] la_data_in[46] la_data_in[45] la_data_in[44] la_data_in[43] la_data_in[42] la_data_in[41]
+ la_data_in[40] la_data_in[39] la_data_in[38] la_data_in[37] la_data_in[36] la_data_in[35] la_data_in[34] la_data_in[33] la_data_in[32]
+ la_data_in[31] la_data_in[30] la_data_in[29] la_data_in[28] la_data_in[27] la_data_in[26] la_data_in[25] la_data_in[24] la_data_in[23]
+ la_data_in[22] la_data_in[21] la_data_in[20] la_data_in[19] la_data_in[18] la_data_in[17] la_data_in[16] la_data_in[15] la_data_in[14]
+ la_data_in[13] la_data_in[12] la_data_in[11] la_data_in[10] la_data_in[9] la_data_in[8] la_data_in[7] la_data_in[6] la_data_in[5] la_data_in[4]
+ la_data_in[3] la_data_in[2] la_data_in[1] la_data_in[0] vssd2 vssd1
*.PININFO vdda1:I vssa1:I vccd2:I vdda2:I vssa2:I gpio_noesd[17:0]:B gpio_analog[17:0]:B la_data_out[127:0]:I io_out[26:0]:O
*+ la_data_in[127:0]:O io_oeb[26:0]:O io_analog[10:0]:B vssd2:I vssd1:I vccd1:I
x1 vdda1 gpio_analog[17] la_data_out[48] la_data_out[41] la_data_out[44] la_data_out[40] la_data_out[42] la_data_out[38]
+ la_data_out[46] la_data_out[47] la_data_out[49] la_data_out[45] la_data_out[39] la_data_out[43] src_200_0 src_10000_0 src_400 src_600 src_test1
+ src_200_1 src_100 src_10000_1 src_50 src_test0 src_200_2 la_data_out[78] la_data_out[125] la_data_out[84] la_data_out[82] la_data_out[81]
+ la_data_out[83] la_data_out[80] ibias_nc3 ibias_nc1 snk_5000_1 snk_test1 snk_3700 ibias_nc2 snk_test0 la_data_out[79] vssa1 bias_generator
x2 la_data_out[62] vdda2 vssa2 vssd2 vccd2 vdd_spare_3 power_stage
x3 la_data_out[60] vdda2 vssa2 vssd2 vccd2 io_analog[10] power_stage
x4 la_data_out[58] vccd2 vssd2 vssd2 vccd2 io_analog[9] power_stage
x5 la_data_out[56] vdda2 vssa2 vssd2 vccd2 io_analog[8] power_stage
x6 la_data_out[54] vdda2 vssa2 vssd2 vccd2 io_analog[7] power_stage
x7 la_data_out[52] vdda2 vssa2 vssd2 vccd2 io_analog[6] power_stage
x8 la_data_out[50] vccd2 vssd2 vssd2 vccd2 io_analog[5] power_stage
x9 la_data_out[65] vdda1 vssa1 vssd1 vccd1 io_analog[4] power_stage
x10 la_data_out[67] vdda1 vssa1 vssd1 vccd1 vdd_spare_2 power_stage
x11 la_data_out[69] vdda1 vssa1 vssd1 vccd1 io_analog[3] power_stage
x12 la_data_out[71] vdda1 vssa1 vssd1 vccd1 vdd_spare_1 power_stage
x13 la_data_out[73] vdda1 vssa1 vssd1 vccd1 io_analog[2] power_stage
x14 la_data_out[75] vdda1 vssa1 vssd1 vccd1 io_analog[1] power_stage
x15 la_data_out[77] vdda1 vssa1 vssd1 vccd1 io_analog[0] power_stage
X17 net4 gpio_analog[13] src_10000_1 vssd2 vssa2 io_analog[7] net2 net1 net3 lpopamp
x18 io_analog[0] vssa1 io_out[0] vccd1 net13 vssd1 io_out[1] vbgB la_data_out[112] la_data_out[113] la_data_out[111] net14 net15
+ la_data_out[107] la_data_out[106] la_data_out[108] net16 la_data_out[109] la_data_out[115] net17 la_data_out[114] la_data_in[117] io_out[5]
+ la_data_out[116] la_data_out[110] src_200_0 sky130_ajc_ip__brownout
x19 io_analog[1] vssa1 vccd1 vssd1 vbgB io_out[6] net18 la_data_out[105] la_data_out[104] la_data_out[103] la_data_out[102] net19
+ la_data_out[100] la_data_out[101] src_200_1 sky130_ajc_ip__overvoltage
x20 io_analog[2] net20 io_out[8] vssa1 vccd1 io_out[7] vssd1 io_out[3] vbgB io_out[2] la_data_out[96] la_data_out[97]
+ la_data_out[98] net21 la_data_out[94] io_out[4] net22 la_data_out[93] la_data_out[92] la_data_in[120] la_data_in[119] la_data_out[99]
+ la_data_out[95] src_200_2 sky130_ajc_ip__por
x21 vccd2 io_analog[8] vssa2 net6 io_out[17] net5 la_data_out[28] la_data_out[29] la_data_out[30] la_data_out[25] la_data_out[26]
+ la_data_out[27] la_data_out[33] la_data_out[32] la_data_out[31] src_400 vssd2 sky130_ak_ip__comparator
x22 io_analog[3] vssa1 vccd1 vssd1 src_50 la_data_out[86] la_data_out[85] io_out[12] gpio_noesd[3] gpio_noesd[4]
+ sky130_be_ip__lsxo
X23 gpio_analog[15] gpio_analog[14] la_data_out[19] la_data_out[20] io_out[23] io_analog[6] vccd2 vssa2 vssd2 src_10000_0 vssd2
+ sky130_ht_ip__hsxo_cpz1
x25 io_analog[10] gpio_noesd[7] src_100 net10 net9 vssa2 vccd2 vssd2 la_data_out[37] sky130_td_ip__opamp_hp
x26 io_analog[4] vccd1 la_data_out[91] la_data_out[87] src_600 la_data_out[88] io_out[13] vbgA la_data_out[89] la_data_out[90]
+ vssd1 vssa1 sky130_vbl_ip__overvoltage
x28 la_data_out[21] net1 net2 vccd2 vssd2 vdda2 lvl_shift_invert
x29 vssa2 la_data_out[22] net5 vdda2 net3 gpio_analog[12] vccd2 vssd2 analog_mux_sel1v8
x30 vssa2 la_data_out[23] net6 vdda2 net4 gpio_analog[11] vccd2 vssd2 analog_mux_sel1v8
x31 vssa2 la_data_out[17] gpio_analog[10] src_test1 vdda2 vccd2 vssd2 isolated_switch_ena1v8
x32 net7 io_analog[9] vssd2 vbgA la_data_out[35] net8 sky130_od_ip__tempsensor_ext_vp
x24 vssa2 la_data_out[34] net9 vdda2 net7 gpio_analog[9] vccd2 vssd2 analog_mux_sel1v8
x33 vssa2 la_data_out[36] net10 vdda2 net8 gpio_analog[8] vccd2 vssd2 analog_mux_sel1v8
x34 vssa1 la_data_out[124] gpio_analog[6] snk_test1 vdda1 vccd1 vssd1 isolated_switch_ena1v8
x35 vssa1 la_data_out[123] gpio_analog[5] snk_3700 vdda1 vccd1 vssd1 isolated_switch_ena1v8
x36 vssa1 la_data_out[122] vbgA vdda1 vbgB gpio_noesd[2] vccd1 vssd1 analog_mux_sel1v8
x37 vssa1 la_data_out[121] gpio_analog[1] snk_5000_1 vdda1 vccd1 vssd1 isolated_switch_ena1v8
x38 vssa1 la_data_out[118] gpio_analog[0] snk_test0 vdda1 vccd1 vssd1 isolated_switch_ena1v8
x16 io_analog[5] net12 vssd2 net11 la_data_out[9] la_data_out[8] la_data_out[10] la_data_out[7] la_data_out[11] la_data_out[6]
+ la_data_out[12] la_data_out[5] la_data_out[13] la_data_out[4] la_data_out[14] la_data_out[3] la_data_out[15] la_data_out[2] la_data_out[16]
+ la_data_out[1] bandgap
x39 io_analog[5] vssd2 net23 net11 bias_basis_current
x40 vssa2 la_data_out[18] net12 vdda2 src_test0 gpio_analog[16] vccd2 vssd2 analog_mux_sel1v8
R1 vssd1 io_oeb[0] sky130_fd_pr__res_generic_m3 W=1 L=1 m=1
R2 vssd1 io_oeb[1] sky130_fd_pr__res_generic_m3 W=1 L=1 m=1
R3 vssd1 io_oeb[2] sky130_fd_pr__res_generic_m3 W=1 L=1 m=1
R4 vssd1 io_oeb[3] sky130_fd_pr__res_generic_m3 W=1 L=1 m=1
R5 vssd1 io_oeb[4] sky130_fd_pr__res_generic_m3 W=1 L=1 m=1
R6 vssd1 io_oeb[5] sky130_fd_pr__res_generic_m3 W=1 L=1 m=1
R7 vssd1 io_oeb[6] sky130_fd_pr__res_generic_m3 W=1 L=1 m=1
R8 vssd1 io_oeb[7] sky130_fd_pr__res_generic_m3 W=1 L=1 m=1
R9 vssd1 io_oeb[8] sky130_fd_pr__res_generic_m3 W=1 L=1 m=1
R10 vssd1 io_oeb[12] sky130_fd_pr__res_generic_m3 W=1 L=1 m=1
R11 vssd1 io_oeb[13] sky130_fd_pr__res_generic_m3 W=1 L=1 m=1
R12 vssd2 io_oeb[17] sky130_fd_pr__res_generic_m3 W=1 L=1 m=1
R13 vssd2 io_oeb[23] sky130_fd_pr__res_generic_m3 W=1 L=1 m=1
.ends


* expanding   symbol:  bias_generator.sym # of pins=41
** sym_path: /home/tim/gits/chipalooza_projects_redef/xschem/bias_generator.sym
** sch_path: /home/tim/gits/chipalooza_projects_redef/xschem/bias_generator.sch
.subckt bias_generator avdd ref_in enb enb_200_2 enb_400 enb_100 enb_200_1 enb_test1 enb_10000_1 enb_10000_0 enb_test0 enb_600
+ enb_50 enb_200_0 src_200_0 src_10000_0 src_400 src_600 src_test1 src_200_1 src_100 src_10000_1 src_50 src_test0 src_200_2 ena_test0
+ ena_2000 ena_test1 ena_5000_2 ena_5000_1 ena_3700 ena_5000_0 snk_5000_2 snk_2000 snk_5000_1 snk_test1 snk_3700 snk_5000_0 snk_test0 ena
+ avss
*.PININFO ref_in:I avss:B ena:I enb:I avdd:B enb_test0:I ena_test0:I src_test0:B snk_test0:B ena_test1:I snk_test1:B enb_test1:I
*+ src_test1:B enb_10000_0:I src_10000_0:B ena_5000_0:I snk_5000_0:B enb_10000_1:I src_10000_1:B ena_5000_1:I snk_5000_1:B ena_5000_2:I
*+ snk_5000_2:B enb_600:I src_600:B enb_400:I src_400:B enb_200_0:I src_200_0:B enb_200_1:I src_200_1:B enb_200_2:I src_200_2:B enb_100:I
*+ src_100:B enb_50:I src_50:B ena_3700:I snk_3700:B ena_2000:I snk_2000:B
x2[19] net1 ena nbias nbias avss bias_nstack
x2[18] net1 ena nbias nbias avss bias_nstack
x2[17] net1 ena nbias nbias avss bias_nstack
x2[16] net1 ena nbias nbias avss bias_nstack
x2[15] net1 ena nbias nbias avss bias_nstack
x2[14] net1 ena nbias nbias avss bias_nstack
x2[13] net1 ena nbias nbias avss bias_nstack
x2[12] net1 ena nbias nbias avss bias_nstack
x2[11] net1 ena nbias nbias avss bias_nstack
x2[10] net1 ena nbias nbias avss bias_nstack
x2[9] net1 ena nbias nbias avss bias_nstack
x2[8] net1 ena nbias nbias avss bias_nstack
x2[7] net1 ena nbias nbias avss bias_nstack
x2[6] net1 ena nbias nbias avss bias_nstack
x2[5] net1 ena nbias nbias avss bias_nstack
x2[4] net1 ena nbias nbias avss bias_nstack
x2[3] net1 ena nbias nbias avss bias_nstack
x2[2] net1 ena nbias nbias avss bias_nstack
x2[1] net1 ena nbias nbias avss bias_nstack
x2[0] net1 ena nbias nbias avss bias_nstack
XR3 net1 pcasc avss sky130_fd_pr__res_high_po_0p35 L=900 mult=1 m=1
XR4 pcasc ref_in avss sky130_fd_pr__res_high_po_0p35 L=1500 mult=1 m=1
x4 net2 ena net3 nbias avss bias_nstack
x2 avdd pbias pcasc pbias enb avss net2 bias_pstack
x13[1] avdd pbias pcasc net4[1] enb_test0 avss src_test0 bias_pstack
x13[0] avdd pbias pcasc net4[0] enb_test0 avss src_test0 bias_pstack
x17[1] snk_test0 ena_test0 net5[1] nbias avss bias_nstack
x17[0] snk_test0 ena_test0 net5[0] nbias avss bias_nstack
x18[1] snk_test1 ena_test1 net6[1] nbias avss bias_nstack
x18[0] snk_test1 ena_test1 net6[0] nbias avss bias_nstack
x16[1] avdd pbias pcasc net7[1] enb_test1 avss src_test1 bias_pstack
x16[0] avdd pbias pcasc net7[0] enb_test1 avss src_test1 bias_pstack
x8[199] avdd pbias pcasc net8[199] enb_10000_0 avss src_10000_0 bias_pstack
x8[198] avdd pbias pcasc net8[198] enb_10000_0 avss src_10000_0 bias_pstack
x8[197] avdd pbias pcasc net8[197] enb_10000_0 avss src_10000_0 bias_pstack
x8[196] avdd pbias pcasc net8[196] enb_10000_0 avss src_10000_0 bias_pstack
x8[195] avdd pbias pcasc net8[195] enb_10000_0 avss src_10000_0 bias_pstack
x8[194] avdd pbias pcasc net8[194] enb_10000_0 avss src_10000_0 bias_pstack
x8[193] avdd pbias pcasc net8[193] enb_10000_0 avss src_10000_0 bias_pstack
x8[192] avdd pbias pcasc net8[192] enb_10000_0 avss src_10000_0 bias_pstack
x8[191] avdd pbias pcasc net8[191] enb_10000_0 avss src_10000_0 bias_pstack