** sch_path: /home/tim/gits/chipalooza_projects_1/xschem/chipalooza_testchip1.sch
**.subckt chipalooza_testchip1
x1 net1 net2 net3 net4 net5 net6 net7 net8 net9 net10 net11 net12 net13 net14 net15 net16 net17 net18 net19 net20 net21 net22
+ net23 net24 net25 net26 net27 net28 net29 net30 net31 net32 net33 net34 net35 net36 net37 net38 net39 net40 net41 bias_generator
x2 net42 net43 net44 net45 net46 power_stage
x3 net47 net48 net49 net50 net51 power_stage
x4 net52 net53 net54 net55 net56 power_stage
x5 net57 net58 net59 net60 net61 power_stage
x6 net62 net63 net64 net65 net66 power_stage
x7 net67 net68 net69 net70 net71 power_stage
x8 net72 net73 net74 net75 net76 power_stage
x9 net77 net78 net79 net80 net81 power_stage
x10 net82 net83 net84 net85 net86 power_stage
x11 net87 net88 net89 net90 net91 power_stage
x12 net92 net93 net94 net95 net96 power_stage
x13 net97 net98 net99 net100 net101 power_stage
x14 net102 net103 net104 net105 net106 power_stage
x15 net107 net108 net109 net110 net111 power_stage
x16 net112 net113 net114 net115 SDC
X17 net116 net118 net124 net121 net120 net119 net123 net122 net117 lpopamp
x18 net125 net126 net127 net128 net129 net130 net131 net132 net133[2] net133[1] net133[0] net134 net135 net136[2] net136[1]
+ net136[0] net137 net138 net139 net140 net141 net142 net143 net144 net145 net146 sky130_ajc_ip__brownout
x19 net147 net148 net149 net150 net151 net152 net153 net154[3] net154[2] net154[1] net154[0] net155 net156 net157 net158
+ sky130_ajc_ip__overvoltage
x20 net159 net160 net161 net162 net163 net164 net165 net166 net167 net168 net169[2] net169[1] net169[0] net170 net171 net172
+ net173 net174 net175 net176 net177 net178 net179 net180 sky130_ajc_ip__por
x21 net181 net182 net183 net184 net185 net186 net187 net188[1] net188[0] net189[5] net189[4] net189[3] net189[2] net189[1]
+ net189[0] net190 sky130_ak_ip__comparator
**.ends

* expanding   symbol:  bias_generator.sym # of pins=41
** sym_path: /home/tim/gits/chipalooza_projects_1/xschem/bias_generator.sym
** sch_path: /home/tim/gits/chipalooza_projects_1/xschem/bias_generator.sch
.subckt bias_generator avdd ref_in enb enb_200_2 enb_400 enb_100 enb_200_1 enb_test1 enb_10000_1 enb_10000_0 enb_test0 enb_600
+ enb_50 enb_200_0 src_200_0 src_10000_0 src_400 src_600 src_test1 src_200_1 src_100 src_10000_1 src_50 src_test0 src_200_2 ena_test0
+ ena_2000 ena_test1 ena_5000_2 ena_5000_1 ena_3700 ena_5000_0 snk_5000_2 snk_2000 snk_5000_1 snk_test1 snk_3700 snk_5000_0 snk_test0 ena
+ avss
*.ipin ref_in
*.iopin avss
*.ipin ena
*.ipin enb
*.iopin avdd
*.ipin enb_test0
*.ipin ena_test0
*.iopin src_test0
*.iopin snk_test0
*.ipin ena_test1
*.iopin snk_test1
*.ipin enb_test1
*.iopin src_test1
*.ipin enb_10000_0
*.iopin src_10000_0
*.ipin ena_5000_0
*.iopin snk_5000_0
*.ipin enb_10000_1
*.iopin src_10000_1
*.ipin ena_5000_1
*.iopin snk_5000_1
*.ipin ena_5000_2
*.iopin snk_5000_2
*.ipin enb_600
*.iopin src_600
*.ipin enb_400
*.iopin src_400
*.ipin enb_200_0
*.iopin src_200_0
*.ipin enb_200_1
*.iopin src_200_1
*.ipin enb_200_2
*.iopin src_200_2
*.ipin enb_100
*.iopin src_100
*.ipin enb_50
*.iopin src_50
*.ipin ena_3700
*.iopin snk_3700
*.ipin ena_2000
*.iopin snk_2000
x2[19] net1 ena nbias nbias avss bias_nstack
x2[18] net1 ena nbias nbias avss bias_nstack
x2[17] net1 ena nbias nbias avss bias_nstack
x2[16] net1 ena nbias nbias avss bias_nstack
x2[15] net1 ena nbias nbias avss bias_nstack
x2[14] net1 ena nbias nbias avss bias_nstack
x2[13] net1 ena nbias nbias avss bias_nstack
x2[12] net1 ena nbias nbias avss bias_nstack
x2[11] net1 ena nbias nbias avss bias_nstack
x2[10] net1 ena nbias nbias avss bias_nstack
x2[9] net1 ena nbias nbias avss bias_nstack
x2[8] net1 ena nbias nbias avss bias_nstack
x2[7] net1 ena nbias nbias avss bias_nstack
x2[6] net1 ena nbias nbias avss bias_nstack
x2[5] net1 ena nbias nbias avss bias_nstack
x2[4] net1 ena nbias nbias avss bias_nstack
x2[3] net1 ena nbias nbias avss bias_nstack
x2[2] net1 ena nbias nbias avss bias_nstack
x2[1] net1 ena nbias nbias avss bias_nstack
x2[0] net1 ena nbias nbias avss bias_nstack
XR3 net1 pcasc avss sky130_fd_pr__res_high_po_0p35 L=900 mult=1 m=1
XR4 pcasc ref_in avss sky130_fd_pr__res_high_po_0p35 L=1500 mult=1 m=1
x4 net2 ena net3 nbias avss bias_nstack
x2 avdd pbias pcasc pbias enb avss net2 bias_pstack
x13[1] avdd pbias pcasc net4[1] enb_test0 avss src_test0 bias_pstack
x13[0] avdd pbias pcasc net4[0] enb_test0 avss src_test0 bias_pstack
x17[1] snk_test0 ena_test0 net5[1] nbias avss bias_nstack
x17[0] snk_test0 ena_test0 net5[0] nbias avss bias_nstack
x18[1] snk_test1 ena_test1 net6[1] nbias avss bias_nstack
x18[0] snk_test1 ena_test1 net6[0] nbias avss bias_nstack
x16[1] avdd pbias pcasc net7[1] enb_test1 avss src_test1 bias_pstack
x16[0] avdd pbias pcasc net7[0] enb_test1 avss src_test1 bias_pstack
x8[199] avdd pbias pcasc net8[199] enb_10000_0 avss src_10000_0 bias_pstack
x8[198] avdd pbias pcasc net8[198] enb_10000_0 avss src_10000_0 bias_pstack
x8[197] avdd pbias pcasc net8[197] enb_10000_0 avss src_10000_0 bias_pstack
x8[196] avdd pbias pcasc net8[196] enb_10000_0 avss src_10000_0 bias_pstack
x8[195] avdd pbias pcasc net8[195] enb_10000_0 avss src_10000_0 bias_pstack
x8[194] avdd pbias pcasc net8[194] enb_10000_0 avss src_10000_0 bias_pstack
x8[193] avdd pbias pcasc net8[193] enb_10000_0 avss src_10000_0 bias_pstack
x8[192] avdd pbias pcasc net8[192] enb_10000_0 avss src_10000_0 bias_pstack
x8[191] avdd pbias pcasc net8[191] enb_10000_0 avss src_10000_0 bias_pstack
x8[190] avdd pbias pcasc net8[190] enb_10000_0 avss src_10000_0 bias_pstack
x8[189] avdd pbias pcasc net8[189] enb_10000_0 avss src_10000_0 bias_pstack
x8[188] avdd pbias pcasc net8[188] enb_10000_0 avss src_10000_0 bias_pstack
x8[187] avdd pbias pcasc net8[187] enb_10000_0 avss src_10000_0 bias_pstack
x8[186] avdd pbias pcasc net8[186] enb_10000_0 avss src_10000_0 bias_pstack
x8[185] avdd pbias pcasc net8[185] enb_10000_0 avss src_10000_0 bias_pstack
x8[184] avdd pbias pcasc net8[184] enb_10000_0 avss src_10000_0 bias_pstack
x8[183] avdd pbias pcasc net8[183] enb_10000_0 avss src_10000_0 bias_pstack
x8[182] avdd pbias pcasc net8[182] enb_10000_0 avss src_10000_0 bias_pstack
x8[181] avdd pbias pcasc net8[181] enb_10000_0 avss src_10000_0 bias_pstack
x8[180] avdd pbias pcasc net8[180] enb_10000_0 avss src_10000_0 bias_pstack
x8[179] avdd pbias pcasc net8[179] enb_10000_0 avss src_10000_0 bias_pstack
x8[178] avdd pbias pcasc net8[178] enb_10000_0 avss src_10000_0 bias_pstack
x8[177] avdd pbias pcasc net8[177] enb_10000_0 avss src_10000_0 bias_pstack
x8[176] avdd pbias pcasc net8[176] enb_10000_0 avss src_10000_0 bias_pstack
x8[175] avdd pbias pcasc net8[175] enb_10000_0 avss src_10000_0 bias_pstack
x8[174] avdd pbias pcasc net8[174] enb_10000_0 avss src_10000_0 bias_pstack
x8[173] avdd pbias pcasc net8[173] enb_10000_0 avss src_10000_0 bias_pstack
x8[172] avdd pbias pcasc net8[172] enb_10000_0 avss src_10000_0 bias_pstack
x8[171] avdd pbias pcasc net8[171] enb_10000_0 avss src_10000_0 bias_pstack
x8[170] avdd pbias pcasc net8[170] enb_10000_0 avss src_10000_0 bias_pstack
x8[169] avdd pbias pcasc net8[169] enb_10000_0 avss src_10000_0 bias_pstack
x8[168] avdd pbias pcasc net8[168] enb_10000_0 avss src_10000_0 bias_pstack
x8[167] avdd pbias pcasc net8[167] enb_10000_0 avss src_10000_0 bias_pstack
x8[166] avdd pbias pcasc net8[166] enb_10000_0 avss src_10000_0 bias_pstack
x8[165] avdd pbias pcasc net8[165] enb_10000_0 avss src_10000_0 bias_pstack
x8[164] avdd pbias pcasc net8[164] enb_10000_0 avss src_10000_0 bias_pstack
x8[163] avdd pbias pcasc net8[163] enb_10000_0 avss src_10000_0 bias_pstack
x8[162] avdd pbias pcasc net8[162] enb_10000_0 avss src_10000_0 bias_pstack
x8[161] avdd pbias pcasc net8[161] enb_10000_0 avss src_10000_0 bias_pstack
x8[160] avdd pbias pcasc net8[160] enb_10000_0 avss src_10000_0 bias_pstack
x8[159] avdd pbias pcasc net8[159] enb_10000_0 avss src_10000_0 bias_pstack
x8[158] avdd pbias pcasc net8[158] enb_10000_0 avss src_10000_0 bias_pstack
x8[157] avdd pbias pcasc net8[157] enb_10000_0 avss src_10000_0 bias_pstack
x8[156] avdd pbias pcasc net8[156] enb_10000_0 avss src_10000_0 bias_pstack
x8[155] avdd pbias pcasc net8[155] enb_10000_0 avss src_10000_0 bias_pstack
x8[154] avdd pbias pcasc net8[154] enb_10000_0 avss src_10000_0 bias_pstack
x8[153] avdd pbias pcasc net8[153] enb_10000_0 avss src_10000_0 bias_pstack
x8[152] avdd pbias pcasc net8[152] enb_10000_0 avss src_10000_0 bias_pstack
x8[151] avdd pbias pcasc net8[151] enb_10000_0 avss src_10000_0 bias_pstack
x8[150] avdd pbias pcasc net8[150] enb_10000_0 avss src_10000_0 bias_pstack
x8[149] avdd pbias pcasc net8[149] enb_10000_0 avss src_10000_0 bias_pstack
x8[148] avdd pbias pcasc net8[148] enb_10000_0 avss src_10000_0 bias_pstack
x8[147] avdd pbias pcasc net8[147] enb_10000_0 avss src_10000_0 bias_pstack
x8[146] avdd pbias pcasc net8[146] enb_10000_0 avss src_10000_0 bias_pstack
x8[145] avdd pbias pcasc net8[145] enb_10000_0 avss src_10000_0 bias_pstack
x8[144] avdd pbias pcasc net8[144] enb_10000_0 avss src_10000_0 bias_pstack
x8[143] avdd pbias pcasc net8[143] enb_10000_0 avss src_10000_0 bias_pstack
x8[142] avdd pbias pcasc net8[142] enb_10000_0 avss src_10000_0 bias_pstack
x8[141] avdd pbias pcasc net8[141] enb_10000_0 avss src_10000_0 bias_pstack
x8[140] avdd pbias pcasc net8[140] enb_10000_0 avss src_10000_0 bias_pstack
x8[139] avdd pbias pcasc net8[139] enb_10000_0 avss src_10000_0 bias_pstack
x8[138] avdd pbias pcasc net8[138] enb_10000_0 avss src_10000_0 bias_pstack
x8[137] avdd pbias pcasc net8[137] enb_10000_0 avss src_10000_0 bias_pstack
x8[136] avdd pbias pcasc net8[136] enb_10000_0 avss src_10000_0 bias_pstack
x8[135] avdd pbias pcasc net8[135] enb_10000_0 avss src_10000_0 bias_pstack
x8[134] avdd pbias pcasc net8[134] enb_10000_0 avss src_10000_0 bias_pstack
x8[133] avdd pbias pcasc net8[133] enb_10000_0 avss src_10000_0 bias_pstack
x8[132] avdd pbias pcasc net8[132] enb_10000_0 avss src_10000_0 bias_pstack
x8[131] avdd pbias pcasc net8[131] enb_10000_0 avss src_10000_0 bias_pstack
x8[130] avdd pbias pcasc net8[130] enb_10000_0 avss src_10000_0 bias_pstack
x8[129] avdd pbias pcasc net8[129] enb_10000_0 avss src_10000_0 bias_pstack
x8[128] avdd pbias pcasc net8[128] enb_10000_0 avss src_10000_0 bias_pstack
x8[127] avdd pbias pcasc net8[127] enb_10000_0 avss src_10000_0 bias_pstack
x8[126] avdd pbias pcasc net8[126] enb_10000_0 avss src_10000_0 bias_pstack
x8[125] avdd pbias pcasc net8[125] enb_10000_0 avss src_10000_0 bias_pstack
x8[124] avdd pbias pcasc net8[124] enb_10000_0 avss src_10000_0 bias_pstack
x8[123] avdd pbias pcasc net8[123] enb_10000_0 avss src_10000_0 bias_pstack
x8[122] avdd pbias pcasc net8[122] enb_10000_0 avss src_10000_0 bias_pstack
x8[121] avdd pbias pcasc net8[121] enb_10000_0 avss src_10000_0 bias_pstack
x8[120] avdd pbias pcasc net8[120] enb_10000_0 avss src_10000_0 bias_pstack
x8[119] avdd pbias pcasc net8[119] enb_10000_0 avss src_10000_0 bias_pstack
x8[118] avdd pbias pcasc net8[118] enb_10000_0 avss src_10000_0 bias_pstack
x8[117] avdd pbias pcasc net8[117] enb_10000_0 avss src_10000_0 bias_pstack
x8[116] avdd pbias pcasc net8[116] enb_10000_0 avss src_10000_0 bias_pstack
x8[115] avdd pbias pcasc net8[115] enb_10000_0 avss src_10000_0 bias_pstack
x8[114] avdd pbias pcasc net8[114] enb_10000_0 avss src_10000_0 bias_pstack
x8[113] avdd pbias pcasc net8[113] enb_10000_0 avss src_10000_0 bias_pstack
x8[112] avdd pbias pcasc net8[112] enb_10000_0 avss src_10000_0 bias_pstack
x8[111] avdd pbias pcasc net8[111] enb_10000_0 avss src_10000_0 bias_pstack
x8[110] avdd pbias pcasc net8[110] enb_10000_0 avss src_10000_0 bias_pstack
x8[109] avdd pbias pcasc net8[109] enb_10000_0 avss src_10000_0 bias_pstack
x8[108] avdd pbias pcasc net8[108] enb_10000_0 avss src_10000_0 bias_pstack
x8[107] avdd pbias pcasc net8[107] enb_10000_0 avss src_10000_0 bias_pstack
x8[106] avdd pbias pcasc net8[106] enb_10000_0 avss src_10000_0 bias_pstack
x8[105] avdd pbias pcasc net8[105] enb_10000_0 avss src_10000_0 bias_pstack
x8[104] avdd pbias pcasc net8[104] enb_10000_0 avss src_10000_0 bias_pstack
x8[103] avdd pbias pcasc net8[103] enb_10000_0 avss src_10000_0 bias_pstack
x8[102] avdd pbias pcasc net8[102] enb_10000_0 avss src_10000_0 bias_pstack
x8[101] avdd pbias pcasc net8[101] enb_10000_0 avss src_10000_0 bias_pstack
x8[100] avdd pbias pcasc net8[100] enb_10000_0 avss src_10000_0 bias_pstack
x8[99] avdd pbias pcasc net8[99] enb_10000_0 avss src_10000_0 bias_pstack
x8[98] avdd pbias pcasc net8[98] enb_10000_0 avss src_10000_0 bias_pstack
x8[97] avdd pbias pcasc net8[97] enb_10000_0 avss src_10000_0 bias_pstack
x8[96] avdd pbias pcasc net8[96] enb_10000_0 avss src_10000_0 bias_pstack
x8[95] avdd pbias pcasc net8[95] enb_10000_0 avss src_10000_0 bias_pstack
x8[94] avdd pbias pcasc net8[94] enb_10000_0 avss src_10000_0 bias_pstack
x8[93] avdd pbias pcasc net8[93] enb_10000_0 avss src_10000_0 bias_pstack
x8[92] avdd pbias pcasc net8[92] enb_10000_0 avss src_10000_0 bias_pstack
x8[91] avdd pbias pcasc net8[91] enb_10000_0 avss src_10000_0 bias_pstack
x8[90] avdd pbias pcasc net8[90] enb_10000_0 avss src_10000_0 bias_pstack
x8[89] avdd pbias pcasc net8[89] enb_10000_0 avss src_10000_0 bias_pstack
x8[88] avdd pbias pcasc net8[88] enb_10000_0 avss src_10000_0 bias_pstack
x8[87] avdd pbias pcasc net8[87] enb_10000_0 avss src_10000_0 bias_pstack
x8[86] avdd pbias pcasc net8[86] enb_10000_0 avss src_10000_0 bias_pstack
x8[85] avdd pbias pcasc net8[85] enb_10000_0 avss src_10000_0 bias_pstack
x8[84] avdd pbias pcasc net8[84] enb_10000_0 avss src_10000_0 bias_pstack
x8[83] avdd pbias pcasc net8[83] enb_10000_0 avss src_10000_0 bias_pstack
x8[82] avdd pbias pcasc net8[82] enb_10000_0 avss src_10000_0 bias_pstack
x8[81] avdd pbias pcasc net8[81] enb_10000_0 avss src_10000_0 bias_pstack
x8[80] avdd pbias pcasc net8[80] enb_10000_0 avss src_10000_0 bias_pstack
x8[79] avdd pbias pcasc net8[79] enb_10000_0 avss src_10000_0 bias_pstack
x8[78] avdd pbias pcasc net8[78] enb_10000_0 avss src_10000_0 bias_pstack
x8[77] avdd pbias pcasc net8[77] enb_10000_0 avss src_10000_0 bias_pstack
x8[76] avdd pbias pcasc net8[76] enb_10000_0 avss src_10000_0 bias_pstack
x8[75] avdd pbias pcasc net8[75] enb_10000_0 avss src_10000_0 bias_pstack
x8[74] avdd pbias pcasc net8[74] enb_10000_0 avss src_10000_0 bias_pstack
x8[73] avdd pbias pcasc net8[73] enb_10000_0 avss src_10000_0 bias_pstack
x8[72] avdd pbias pcasc net8[72] enb_10000_0 avss src_10000_0 bias_pstack
x8[71] avdd pbias pcasc net8[71] enb_10000_0 avss src_10000_0 bias_pstack
x8[70] avdd pbias pcasc net8[70] enb_10000_0 avss src_10000_0 bias_pstack
x8[69] avdd pbias pcasc net8[69] enb_10000_0 avss src_10000_0 bias_pstack
x8[68] avdd pbias pcasc net8[68] enb_10000_0 avss src_10000_0 bias_pstack
x8[67] avdd pbias pcasc net8[67] enb_10000_0 avss src_10000_0 bias_pstack
x8[66] avdd pbias pcasc net8[66] enb_10000_0 avss src_10000_0 bias_pstack
x8[65] avdd pbias pcasc net8[65] enb_10000_0 avss src_10000_0 bias_pstack
x8[64] avdd pbias pcasc net8[64] enb_10000_0 avss src_10000_0 bias_pstack
x8[63] avdd pbias pcasc net8[63] enb_10000_0 avss src_10000_0 bias_pstack
x8[62] avdd pbias pcasc net8[62] enb_10000_0 avss src_10000_0 bias_pstack
x8[61] avdd pbias pcasc net8[61] enb_10000_0 avss src_10000_0 bias_pstack
x8[60] avdd pbias pcasc net8[60] enb_10000_0 avss src_10000_0 bias_pstack
x8[59] avdd pbias pcasc net8[59] enb_10000_0 avss src_10000_0 bias_pstack
x8[58] avdd pbias pcasc net8[58] enb_10000_0 avss src_10000_0 bias_pstack
x8[57] avdd pbias pcasc net8[57] enb_10000_0 avss src_10000_0 bias_pstack
x8[56] avdd pbias pcasc net8[56] enb_10000_0 avss src_10000_0 bias_pstack
x8[55] avdd pbias pcasc net8[55] enb_10000_0 avss src_10000_0 bias_pstack
x8[54] avdd pbias pcasc net8[54] enb_10000_0 avss src_10000_0 bias_pstack
x8[53] avdd pbias pcasc net8[53] enb_10000_0 avss src_10000_0 bias_pstack
x8[52] avdd pbias pcasc net8[52] enb_10000_0 avss src_10000_0 bias_pstack
x8[51] avdd pbias pcasc net8[51] enb_10000_0 avss src_10000_0 bias_pstack
x8[50] avdd pbias pcasc net8[50] enb_10000_0 avss src_10000_0 bias_pstack
x8[49] avdd pbias pcasc net8[49] enb_10000_0 avss src_10000_0 bias_pstack
x8[48] avdd pbias pcasc net8[48] enb_10000_0 avss src_10000_0 bias_pstack
x8[47] avdd pbias pcasc net8[47] enb_10000_0 avss src_10000_0 bias_pstack
x8[46] avdd pbias pcasc net8[46] enb_10000_0 avss src_10000_0 bias_pstack
x8[45] avdd pbias pcasc net8[45] enb_10000_0 avss src_10000_0 bias_pstack
x8[44] avdd pbias pcasc net8[44] enb_10000_0 avss src_10000_0 bias_pstack
x8[43] avdd pbias pcasc net8[43] enb_10000_0 avss src_10000_0 bias_pstack
x8[42] avdd pbias pcasc net8[42] enb_10000_0 avss src_10000_0 bias_pstack
x8[41] avdd pbias pcasc net8[41] enb_10000_0 avss src_10000_0 bias_pstack
x8[40] avdd pbias pcasc net8[40] enb_10000_0 avss src_10000_0 bias_pstack
x8[39] avdd pbias pcasc net8[39] enb_10000_0 avss src_10000_0 bias_pstack
x8[38] avdd pbias pcasc net8[38] enb_10000_0 avss src_10000_0 bias_pstack
x8[37] avdd pbias pcasc net8[37] enb_10000_0 avss src_10000_0 bias_pstack
x8[36] avdd pbias pcasc net8[36] enb_10000_0 avss src_10000_0 bias_pstack
x8[35] avdd pbias pcasc net8[35] enb_10000_0 avss src_10000_0 bias_pstack
x8[34] avdd pbias pcasc net8[34] enb_10000_0 avss src_10000_0 bias_pstack
x8[33] avdd pbias pcasc net8[33] enb_10000_0 avss src_10000_0 bias_pstack
x8[32] avdd pbias pcasc net8[32] enb_10000_0 avss src_10000_0 bias_pstack
x8[31] avdd pbias pcasc net8[31] enb_10000_0 avss src_10000_0 bias_pstack
x8[30] avdd pbias pcasc net8[30] enb_10000_0 avss src_10000_0 bias_pstack
x8[29] avdd pbias pcasc net8[29] enb_10000_0 avss src_10000_0 bias_pstack
x8[28] avdd pbias pcasc net8[28] enb_10000_0 avss src_10000_0 bias_pstack
x8[27] avdd pbias pcasc net8[27] enb_10000_0 avss src_10000_0 bias_pstack
x8[26] avdd pbias pcasc net8[26] enb_10000_0 avss src_10000_0 bias_pstack
x8[25] avdd pbias pcasc net8[25] enb_10000_0 avss src_10000_0 bias_pstack
x8[24] avdd pbias pcasc net8[24] enb_10000_0 avss src_10000_0 bias_pstack
x8[23] avdd pbias pcasc net8[23] enb_10000_0 avss src_10000_0 bias_pstack
x8[22] avdd pbias pcasc net8[22] enb_10000_0 avss src_10000_0 bias_pstack
x8[21] avdd pbias pcasc net8[21] enb_10000_0 avss src_10000_0 bias_pstack
x8[20] avdd pbias pcasc net8[20] enb_10000_0 avss src_10000_0 bias_pstack
x8[19] avdd pbias pcasc net8[19] enb_10000_0 avss src_10000_0 bias_pstack
x8[18] avdd pbias pcasc net8[18] enb_10000_0 avss src_10000_0 bias_pstack
x8[17] avdd pbias pcasc net8[17] enb_10000_0 avss src_10000_0 bias_pstack
x8[16] avdd pbias pcasc net8[16] enb_10000_0 avss src_10000_0 bias_pstack
x8[15] avdd pbias pcasc net8[15] enb_10000_0 avss src_10000_0 bias_pstack
x8[14] avdd pbias pcasc net8[14] enb_10000_0 avss src_10000_0 bias_pstack
x8[13] avdd pbias pcasc net8[13] enb_10000_0 avss src_10000_0 bias_pstack
x8[12] avdd pbias pcasc net8[12] enb_10000_0 avss src_10000_0 bias_pstack
x8[11] avdd pbias pcasc net8[11] enb_10000_0 avss src_10000_0 bias_pstack
x8[10] avdd pbias pcasc net8[10] enb_10000_0 avss src_10000_0 bias_pstack
x8[9] avdd pbias pcasc net8[9] enb_10000_0 avss src_10000_0 bias_pstack
x8[8] avdd pbias pcasc net8[8] enb_10000_0 avss src_10000_0 bias_pstack
x8[7] avdd pbias pcasc net8[7] enb_10000_0 avss src_10000_0 bias_pstack
x8[6] avdd pbias pcasc net8[6] enb_10000_0 avss src_10000_0 bias_pstack
x8[5] avdd pbias pcasc net8[5] enb_10000_0 avss src_10000_0 bias_pstack
x8[4] avdd pbias pcasc net8[4] enb_10000_0 avss src_10000_0 bias_pstack
x8[3] avdd pbias pcasc net8[3] enb_10000_0 avss src_10000_0 bias_pstack
x8[2] avdd pbias pcasc net8[2] enb_10000_0 avss src_10000_0 bias_pstack
x8[1] avdd pbias pcasc net8[1] enb_10000_0 avss src_10000_0 bias_pstack
x8[0] avdd pbias pcasc net8[0] enb_10000_0 avss src_10000_0 bias_pstack
x9[99] snk_5000_0 ena_5000_0 net9[99] nbias avss bias_nstack
x9[98] snk_5000_0 ena_5000_0 net9[98] nbias avss bias_nstack
x9[97] snk_5000_0 ena_5000_0 net9[97] nbias avss bias_nstack
x9[96] snk_5000_0 ena_5000_0 net9[96] nbias avss bias_nstack
x9[95] snk_5000_0 ena_5000_0 net9[95] nbias avss bias_nstack
x9[94] snk_5000_0 ena_5000_0 net9[94] nbias avss bias_nstack
x9[93] snk_5000_0 ena_5000_0 net9[93] nbias avss bias_nstack
x9[92] snk_5000_0 ena_5000_0 net9[92] nbias avss bias_nstack
x9[91] snk_5000_0 ena_5000_0 net9[91] nbias avss bias_nstack
x9[90] snk_5000_0 ena_5000_0 net9[90] nbias avss bias_nstack
x9[89] snk_5000_0 ena_5000_0 net9[89] nbias avss bias_nstack
x9[88] snk_5000_0 ena_5000_0 net9[88] nbias avss bias_nstack
x9[87] snk_5000_0 ena_5000_0 net9[87] nbias avss bias_nstack
x9[86] snk_5000_0 ena_5000_0 net9[86] nbias avss bias_nstack
x9[85] snk_5000_0 ena_5000_0 net9[85] nbias avss bias_nstack
x9[84] snk_5000_0 ena_5000_0 net9[84] nbias avss bias_nstack
x9[83] snk_5000_0 ena_5000_0 net9[83] nbias avss bias_nstack
x9[82] snk_5000_0 ena_5000_0 net9[82] nbias avss bias_nstack
x9[81] snk_5000_0 ena_5000_0 net9[81] nbias avss bias_nstack
x9[80] snk_5000_0 ena_5000_0 net9[80] nbias avss bias_nstack
x9[79] snk_5000_0 ena_5000_0 net9[79] nbias avss bias_nstack
x9[78] snk_5000_0 ena_5000_0 net9[78] nbias avss bias_nstack
x9[77] snk_5000_0 ena_5000_0 net9[77] nbias avss bias_nstack
x9[76] snk_5000_0 ena_5000_0 net9[76] nbias avss bias_nstack
x9[75] snk_5000_0 ena_5000_0 net9[75] nbias avss bias_nstack
x9[74] snk_5000_0 ena_5000_0 net9[74] nbias avss bias_nstack
x9[73] snk_5000_0 ena_5000_0 net9[73] nbias avss bias_nstack
x9[72] snk_5000_0 ena_5000_0 net9[72] nbias avss bias_nstack
x9[71] snk_5000_0 ena_5000_0 net9[71] nbias avss bias_nstack
x9[70] snk_5000_0 ena_5000_0 net9[70] nbias avss bias_nstack
x9[69] snk_5000_0 ena_5000_0 net9[69] nbias avss bias_nstack
x9[68] snk_5000_0 ena_5000_0 net9[68] nbias avss bias_nstack
x9[67] snk_5000_0 ena_5000_0 net9[67] nbias avss bias_nstack
x9[66] snk_5000_0 ena_5000_0 net9[66] nbias avss bias_nstack
x9[65] snk_5000_0 ena_5000_0 net9[65] nbias avss bias_nstack
x9[64] snk_5000_0 ena_5000_0 net9[64] nbias avss bias_nstack
x9[63] snk_5000_0 ena_5000_0 net9[63] nbias avss bias_nstack
x9[62] snk_5000_0 ena_5000_0 net9[62] nbias avss bias_nstack
x9[61] snk_5000_0 ena_5000_0 net9[61] nbias avss bias_nstack
x9[60] snk_5000_0 ena_5000_0 net9[60] nbias avss bias_nstack
x9[59] snk_5000_0 ena_5000_0 net9[59] nbias avss bias_nstack
x9[58] snk_5000_0 ena_5000_0 net9[58] nbias avss bias_nstack
x9[57] snk_5000_0 ena_5000_0 net9[57] nbias avss bias_nstack
x9[56] snk_5000_0 ena_5000_0 net9[56] nbias avss bias_nstack
x9[55] snk_5000_0 ena_5000_0 net9[55] nbias avss bias_nstack
x9[54] snk_5000_0 ena_5000_0 net9[54] nbias avss bias_nstack
x9[53] snk_5000_0 ena_5000_0 net9[53] nbias avss bias_nstack
x9[52] snk_5000_0 ena_5000_0 net9[52] nbias avss bias_nstack
x9[51] snk_5000_0 ena_5000_0 net9[51] nbias avss bias_nstack
x9[50] snk_5000_0 ena_5000_0 net9[50] nbias avss bias_nstack
x9[49] snk_5000_0 ena_5000_0 net9[49] nbias avss bias_nstack
x9[48] snk_5000_0 ena_5000_0 net9[48] nbias avss bias_nstack
x9[47] snk_5000_0 ena_5000_0 net9[47] nbias avss bias_nstack
x9[46] snk_5000_0 ena_5000_0 net9[46] nbias avss bias_nstack
x9[45] snk_5000_0 ena_5000_0 net9[45] nbias avss bias_nstack
x9[44] snk_5000_0 ena_5000_0 net9[44] nbias avss bias_nstack
x9[43] snk_5000_0 ena_5000_0 net9[43] nbias avss bias_nstack
x9[42] snk_5000_0 ena_5000_0 net9[42] nbias avss bias_nstack
x9[41] snk_5000_0 ena_5000_0 net9[41] nbias avss bias_nstack
x9[40] snk_5000_0 ena_5000_0 net9[40] nbias avss bias_nstack
x9[39] snk_5000_0 ena_5000_0 net9[39] nbias avss bias_nstack
x9[38] snk_5000_0 ena_5000_0 net9[38] nbias avss bias_nstack
x9[37] snk_5000_0 ena_5000_0 net9[37] nbias avss bias_nstack
x9[36] snk_5000_0 ena_5000_0 net9[36] nbias avss bias_nstack
x9[35] snk_5000_0 ena_5000_0 net9[35] nbias avss bias_nstack
x9[34] snk_5000_0 ena_5000_0 net9[34] nbias avss bias_nstack
x9[33] snk_5000_0 ena_5000_0 net9[33] nbias avss bias_nstack
x9[32] snk_5000_0 ena_5000_0 net9[32] nbias avss bias_nstack
x9[31] snk_5000_0 ena_5000_0 net9[31] nbias avss bias_nstack
x9[30] snk_5000_0 ena_5000_0 net9[30] nbias avss bias_nstack
x9[29] snk_5000_0 ena_5000_0 net9[29] nbias avss bias_nstack
x9[28] snk_5000_0 ena_5000_0 net9[28] nbias avss bias_nstack
x9[27] snk_5000_0 ena_5000_0 net9[27] nbias avss bias_nstack
x9[26] snk_5000_0 ena_5000_0 net9[26] nbias avss bias_nstack
x9[25] snk_5000_0 ena_5000_0 net9[25] nbias avss bias_nstack
x9[24] snk_5000_0 ena_5000_0 net9[24] nbias avss bias_nstack
x9[23] snk_5000_0 ena_5000_0 net9[23] nbias avss bias_nstack
x9[22] snk_5000_0 ena_5000_0 net9[22] nbias avss bias_nstack
x9[21] snk_5000_0 ena_5000_0 net9[21] nbias avss bias_nstack
x9[20] snk_5000_0 ena_5000_0 net9[20] nbias avss bias_nstack
x9[19] snk_5000_0 ena_5000_0 net9[19] nbias avss bias_nstack
x9[18] snk_5000_0 ena_5000_0 net9[18] nbias avss bias_nstack
x9[17] snk_5000_0 ena_5000_0 net9[17] nbias avss bias_nstack
x9[16] snk_5000_0 ena_5000_0 net9[16] nbias avss bias_nstack
x9[15] snk_5000_0 ena_5000_0 net9[15] nbias avss bias_nstack
x9[14] snk_5000_0 ena_5000_0 net9[14] nbias avss bias_nstack
x9[13] snk_5000_0 ena_5000_0 net9[13] nbias avss bias_nstack
x9[12] snk_5000_0 ena_5000_0 net9[12] nbias avss bias_nstack
x9[11] snk_5000_0 ena_5000_0 net9[11] nbias avss bias_nstack
x9[10] snk_5000_0 ena_5000_0 net9[10] nbias avss bias_nstack
x9[9] snk_5000_0 ena_5000_0 net9[9] nbias avss bias_nstack
x9[8] snk_5000_0 ena_5000_0 net9[8] nbias avss bias_nstack
x9[7] snk_5000_0 ena_5000_0 net9[7] nbias avss bias_nstack
x9[6] snk_5000_0 ena_5000_0 net9[6] nbias avss bias_nstack
x9[5] snk_5000_0 ena_5000_0 net9[5] nbias avss bias_nstack
x9[4] snk_5000_0 ena_5000_0 net9[4] nbias avss bias_nstack
x9[3] snk_5000_0 ena_5000_0 net9[3] nbias avss bias_nstack
x9[2] snk_5000_0 ena_5000_0 net9[2] nbias avss bias_nstack
x9[1] snk_5000_0 ena_5000_0 net9[1] nbias avss bias_nstack
x9[0] snk_5000_0 ena_5000_0 net9[0] nbias avss bias_nstack
x10[199] avdd pbias pcasc net10[199] enb_10000_1 avss src_10000_1 bias_pstack
x10[198] avdd pbias pcasc net10[198] enb_10000_1 avss src_10000_1 bias_pstack
x10[197] avdd pbias pcasc net10[197] enb_10000_1 avss src_10000_1 bias_pstack
x10[196] avdd pbias pcasc net10[196] enb_10000_1 avss src_10000_1 bias_pstack
x10[195] avdd pbias pcasc net10[195] enb_10000_1 avss src_10000_1 bias_pstack
x10[194] avdd pbias pcasc net10[194] enb_10000_1 avss src_10000_1 bias_pstack
x10[193] avdd pbias pcasc net10[193] enb_10000_1 avss src_10000_1 bias_pstack
x10[192] avdd pbias pcasc net10[192] enb_10000_1 avss src_10000_1 bias_pstack
x10[191] avdd pbias pcasc net10[191] enb_10000_1 avss src_10000_1 bias_pstack
x10[190] avdd pbias pcasc net10[190] enb_10000_1 avss src_10000_1 bias_pstack
x10[189] avdd pbias pcasc net10[189] enb_10000_1 avss src_10000_1 bias_pstack
x10[188] avdd pbias pcasc net10[188] enb_10000_1 avss src_10000_1 bias_pstack
x10[187] avdd pbias pcasc net10[187] enb_10000_1 avss src_10000_1 bias_pstack
x10[186] avdd pbias pcasc net10[186] enb_10000_1 avss src_10000_1 bias_pstack
x10[185] avdd pbias pcasc net10[185] enb_10000_1 avss src_10000_1 bias_pstack
x10[184] avdd pbias pcasc net10[184] enb_10000_1 avss src_10000_1 bias_pstack
x10[183] avdd pbias pcasc net10[183] enb_10000_1 avss src_10000_1 bias_pstack
x10[182] avdd pbias pcasc net10[182] enb_10000_1 avss src_10000_1 bias_pstack
x10[181] avdd pbias pcasc net10[181] enb_10000_1 avss src_10000_1 bias_pstack
x10[180] avdd pbias pcasc net10[180] enb_10000_1 avss src_10000_1 bias_pstack
x10[179] avdd pbias pcasc net10[179] enb_10000_1 avss src_10000_1 bias_pstack
x10[178] avdd pbias pcasc net10[178] enb_10000_1 avss src_10000_1 bias_pstack
x10[177] avdd pbias pcasc net10[177] enb_10000_1 avss src_10000_1 bias_pstack
x10[176] avdd pbias pcasc net10[176] enb_10000_1 avss src_10000_1 bias_pstack
x10[175] avdd pbias pcasc net10[175] enb_10000_1 avss src_10000_1 bias_pstack
x10[174] avdd pbias pcasc net10[174] enb_10000_1 avss src_10000_1 bias_pstack
x10[173] avdd pbias pcasc net10[173] enb_10000_1 avss src_10000_1 bias_pstack
x10[172] avdd pbias pcasc net10[172] enb_10000_1 avss src_10000_1 bias_pstack
x10[171] avdd pbias pcasc net10[171] enb_10000_1 avss src_10000_1 bias_pstack
x10[170] avdd pbias pcasc net10[170] enb_10000_1 avss src_10000_1 bias_pstack
x10[169] avdd pbias pcasc net10[169] enb_10000_1 avss src_10000_1 bias_pstack
x10[168] avdd pbias pcasc net10[168] enb_10000_1 avss src_10000_1 bias_pstack
x10[167] avdd pbias pcasc net10[167] enb_10000_1 avss src_10000_1 bias_pstack
x10[166] avdd pbias pcasc net10[166] enb_10000_1 avss src_10000_1 bias_pstack
x10[165] avdd pbias pcasc net10[165] enb_10000_1 avss src_10000_1 bias_pstack
x10[164] avdd pbias pcasc net10[164] enb_10000_1 avss src_10000_1 bias_pstack
x10[163] avdd pbias pcasc net10[163] enb_10000_1 avss src_10000_1 bias_pstack
x10[162] avdd pbias pcasc net10[162] enb_10000_1 avss src_10000_1 bias_pstack
x10[161] avdd pbias pcasc net10[161] enb_10000_1 avss src_10000_1 bias_pstack
x10[160] avdd pbias pcasc net10[160] enb_10000_1 avss src_10000_1 bias_pstack
x10[159] avdd pbias pcasc net10[159] enb_10000_1 avss src_10000_1 bias_pstack
x10[158] avdd pbias pcasc net10[158] enb_10000_1 avss src_10000_1 bias_pstack
x10[157] avdd pbias pcasc net10[157] enb_10000_1 avss src_10000_1 bias_pstack
x10[156] avdd pbias pcasc net10[156] enb_10000_1 avss src_10000_1 bias_pstack
x10[155] avdd pbias pcasc net10[155] enb_10000_1 avss src_10000_1 bias_pstack
x10[154] avdd pbias pcasc net10[154] enb_10000_1 avss src_10000_1 bias_pstack
x10[153] avdd pbias pcasc net10[153] enb_10000_1 avss src_10000_1 bias_pstack
x10[152] avdd pbias pcasc net10[152] enb_10000_1 avss src_10000_1 bias_pstack
x10[151] avdd pbias pcasc net10[151] enb_10000_1 avss src_10000_1 bias_pstack
x10[150] avdd pbias pcasc net10[150] enb_10000_1 avss src_10000_1 bias_pstack
x10[149] avdd pbias pcasc net10[149] enb_10000_1 avss src_10000_1 bias_pstack
x10[148] avdd pbias pcasc net10[148] enb_10000_1 avss src_10000_1 bias_pstack